
**** 06/12/13 11:56:00 ******* PSpice 16.3.0 (June 2009) ****** ID# 0 ********

 ** Profile: "SCHEMATIC1-_Fig1_13_MSD"  [ C:\Users\HomePC\Documents\Spring 2013\PSpice_CMOSedu\MSD\Ch1_MSD_Pspice\_Fig1_13_MSD\_fig1_


 ****     CIRCUIT DESCRIPTION


******************************************************************************




** Creating circuit file "_Fig1_13_MSD.cir" 
** WARNING: THIS AUTOMATICALLY GENERATED FILE MAY BE OVERWRITTEN BY SUBSEQUENT SIMULATIONS

*Libraries: 
* Profile Libraries :
* Local Libraries :
* From [PSPICE NETLIST] section of C:\Cadence\SPB_16.3\tools\PSpice\PSpice.ini file:
.lib "nom.lib" 

*Analysis directives: 
.TRAN  0 40ns 0 SKIPBP 
.PROBE V(alias(*)) I(alias(*)) W(alias(*)) D(alias(*)) NOISE(alias(*)) 
.INC "..\SCHEMATIC1.net" 



**** INCLUDING SCHEMATIC1.net ****
* source _FIG1_13_MSD
R_R2         VOUT N00779  5k TC=0,0 
R_R3         VIN VOUT  5k TC=0,0 
R_R1         0 N00779  50 TC=0,0 
T_T1         VIN 0 N00779 0 Z0=50 TD=5ns  
V_V1         VIN 0  
+SIN 0 1 50Meg 0 0 0

**** RESUMING _Fig1_13_MSD.cir ****
.END


          JOB CONCLUDED

**** 06/12/13 11:56:00 ******* PSpice 16.3.0 (June 2009) ****** ID# 0 ********

 ** Profile: "SCHEMATIC1-_Fig1_13_MSD"  [ C:\Users\HomePC\Documents\Spring 2013\PSpice_CMOSedu\MSD\Ch1_MSD_Pspice\_Fig1_13_MSD\_fig1_


 ****     JOB STATISTICS SUMMARY


******************************************************************************



  Total job time (using Solver 1)   =        0.00
