
**** 06/29/13 10:33:10 ****** PSpice Lite (October 2012) ****** ID# 10813 ****

 ** Profile: "Fig1_20-tran"  [ C:\Users\jbaker\Desktop\PSpice_CMOSedu\Chap1_PSpice\Fig1_20\fig1_20-pspicefiles\fig1_20\tran.sim ] 


 ****     CIRCUIT DESCRIPTION


******************************************************************************




** Creating circuit file "tran.cir" 
** WARNING: THIS AUTOMATICALLY GENERATED FILE MAY BE OVERWRITTEN BY SUBSEQUENT SIMULATIONS

*Libraries: 
* Profile Libraries :
* Local Libraries :
* From [PSPICE NETLIST] section of C:\SPB_Data\cdssetup\OrCAD_PSpice/16.6.0/PSpice.ini file:
.lib "nomd.lib" 

*Analysis directives: 
.TRAN  0 3u 0 
.OPTIONS ADVCONV
.PROBE64 V(alias(*)) I(alias(*)) W(alias(*)) D(alias(*)) NOISE(alias(*)) 
.INC "..\Fig1_20.net" 



**** INCLUDING Fig1_20.net ****
* source FIG1_20
V_V1         VIN 0  AC 1
+SIN 0 1 1MEG 0 0 0
R_R1         VIN VOUT  1k TC=0,0 
R_R2         0 VOUT  2k TC=0,0 

**** RESUMING tran.cir ****
.END

**** 06/29/13 10:33:10 ****** PSpice Lite (October 2012) ****** ID# 10813 ****

 ** Profile: "Fig1_20-tran"  [ C:\Users\jbaker\Desktop\PSpice_CMOSedu\Chap1_PSpice\Fig1_20\fig1_20-pspicefiles\fig1_20\tran.sim ] 


 ****     INITIAL TRANSIENT SOLUTION       TEMPERATURE =   27.000 DEG C


******************************************************************************



 NODE   VOLTAGE     NODE   VOLTAGE     NODE   VOLTAGE     NODE   VOLTAGE


(  VIN)    0.0000  ( VOUT)    0.0000  




    VOLTAGE SOURCE CURRENTS
    NAME         CURRENT

    V_V1         0.000E+00

    TOTAL POWER DISSIPATION   0.00E+00  WATTS



          JOB CONCLUDED

**** 06/29/13 10:33:10 ****** PSpice Lite (October 2012) ****** ID# 10813 ****

 ** Profile: "Fig1_20-tran"  [ C:\Users\jbaker\Desktop\PSpice_CMOSedu\Chap1_PSpice\Fig1_20\fig1_20-pspicefiles\fig1_20\tran.sim ] 


 ****     JOB STATISTICS SUMMARY


******************************************************************************



  Total job time (using Solver 1)   =        0.00
