
**** 06/29/13 11:02:20 ****** PSpice Lite (October 2012) ****** ID# 10813 ****

 ** Profile: "Ex8_6-noise"  [ C:\Users\jbaker\Desktop\PSpice_CMOSedu\Chap8_PSpice\Ex8_6\Ex8_6-pspicefiles\Ex8_6\noise.sim ] 


 ****     CIRCUIT DESCRIPTION


******************************************************************************




** Creating circuit file "noise.cir" 
** WARNING: THIS AUTOMATICALLY GENERATED FILE MAY BE OVERWRITTEN BY SUBSEQUENT SIMULATIONS

*Libraries: 
* Profile Libraries :
* Local Libraries :
* From [PSPICE NETLIST] section of C:\SPB_Data\cdssetup\OrCAD_PSpice/16.6.0/PSpice.ini file:
.lib "nomd.lib" 

*Analysis directives: 
.AC DEC 100 1 1G
.NOISE V([VOUT],[0]) V_Vin 
.OPTIONS ADVCONV
.PROBE64 V(alias(*)) I(alias(*)) W(alias(*)) D(alias(*)) NOISE(alias(*)) 
.INC "..\Ex8_6.net" 



**** INCLUDING Ex8_6.net ****
* source EX8_6
C_C1         0 VOUT  1p  TC=0,0 
V_Vin         N02347 0 DC 0 AC 1 0
R_R1         VOUT N02347  10k TC=0,0 

**** RESUMING noise.cir ****
.END

**** 06/29/13 11:02:20 ****** PSpice Lite (October 2012) ****** ID# 10813 ****

 ** Profile: "Ex8_6-noise"  [ C:\Users\jbaker\Desktop\PSpice_CMOSedu\Chap8_PSpice\Ex8_6\Ex8_6-pspicefiles\Ex8_6\noise.sim ] 


 ****     SMALL SIGNAL BIAS SOLUTION       TEMPERATURE =   27.000 DEG C


******************************************************************************



 NODE   VOLTAGE     NODE   VOLTAGE     NODE   VOLTAGE     NODE   VOLTAGE


( VOUT)    0.0000  (N02347)    0.0000 




    VOLTAGE SOURCE CURRENTS
    NAME         CURRENT

    V_Vin        0.000E+00

    TOTAL POWER DISSIPATION   0.00E+00  WATTS



          JOB CONCLUDED

**** 06/29/13 11:02:20 ****** PSpice Lite (October 2012) ****** ID# 10813 ****

 ** Profile: "Ex8_6-noise"  [ C:\Users\jbaker\Desktop\PSpice_CMOSedu\Chap8_PSpice\Ex8_6\Ex8_6-pspicefiles\Ex8_6\noise.sim ] 


 ****     JOB STATISTICS SUMMARY


******************************************************************************



  Total job time (using Solver 1)   =         .03
