
**** 07/03/13 17:17:54 ***** PSpice 16.6.0 (October 2012) ***** ID# 0 ********

 ** Profile: "_Fig3_37_MSD-_Fig3_37_MSD"  [ C:\Users\jbaker\Desktop\Ch3_MSD_PSpice\_fig3_37_msd-pspicefiles\_fig3_37_msd\_fig3_37_msd


 ****     CIRCUIT DESCRIPTION


******************************************************************************




** Creating circuit file "_Fig3_37_MSD.cir" 
** WARNING: THIS AUTOMATICALLY GENERATED FILE MAY BE OVERWRITTEN BY SUBSEQUENT SIMULATIONS

*Libraries: 
* Profile Libraries :
* Local Libraries :
* From [PSPICE NETLIST] section of C:\SPB_Data\cdssetup\OrCAD_PSpice/16.6.0/PSpice.ini file:
.lib "nom.lib" 

*Analysis directives: 
.AC DEC 1000 10k 100meg
.OPTIONS ADVCONV
.PROBE64 V(alias(*)) I(alias(*)) W(alias(*)) D(alias(*)) NOISE(alias(*)) 
.INC "..\_Fig3_37_MSD.net" 



**** INCLUDING _Fig3_37_MSD.net ****
* source _FIG3_37_MSD
R_R1         VIN N00416  1.414k TC=0,0 
L_L1         N00416 VOUT1  100uH  
C_C1         VOUT1 0  100p   
V_V1         VIN 0 DC 0Vdc AC 1Vac 
C_C2         VOUT2 0  100p   
L_L2         N00683 VOUT2  100uH  
R_R2         VIN N00683  2k TC=0,0 
R_R3         VIN N00957  5k TC=0,0 
C_C3         VOUT3 0  100p   
L_L3         N00957 VOUT3  100uH  
L_L4         N01238 VOUT4  100uH  
R_R4         VIN N01238  1k TC=0,0 
C_C4         VOUT4 0  100p   
L_L5         N01526 VOUT5  100uH  
R_R5         VIN N01526  200 TC=0,0 
C_C5         VOUT5 0  100p   

**** RESUMING _Fig3_37_MSD.cir ****
.END

**** 07/03/13 17:17:54 ***** PSpice 16.6.0 (October 2012) ***** ID# 0 ********

 ** Profile: "_Fig3_37_MSD-_Fig3_37_MSD"  [ C:\Users\jbaker\Desktop\Ch3_MSD_PSpice\_fig3_37_msd-pspicefiles\_fig3_37_msd\_fig3_37_msd


 ****     SMALL SIGNAL BIAS SOLUTION       TEMPERATURE =   27.000 DEG C


******************************************************************************



 NODE   VOLTAGE     NODE   VOLTAGE     NODE   VOLTAGE     NODE   VOLTAGE


(  VIN)    0.0000  (VOUT1)    0.0000  (VOUT2)    0.0000  (VOUT3)    0.0000      

(VOUT4)    0.0000  (VOUT5)    0.0000  (N00416)    0.0000 (N00683)    0.0000     

(N00957)    0.0000 (N01238)    0.0000 (N01526)    0.0000 




    VOLTAGE SOURCE CURRENTS
    NAME         CURRENT

    V_V1         0.000E+00

    TOTAL POWER DISSIPATION   0.00E+00  WATTS



          JOB CONCLUDED

**** 07/03/13 17:17:54 ***** PSpice 16.6.0 (October 2012) ***** ID# 0 ********

 ** Profile: "_Fig3_37_MSD-_Fig3_37_MSD"  [ C:\Users\jbaker\Desktop\Ch3_MSD_PSpice\_fig3_37_msd-pspicefiles\_fig3_37_msd\_fig3_37_msd


 ****     JOB STATISTICS SUMMARY


******************************************************************************



  Total job time (using Solver 1)   =         .06
