
**** 05/23/13 01:33:52 ******* PSpice 16.3.0 (June 2009) ****** ID# 0 ********

 ** Profile: "SCHEMATIC1-_Fig1_25_K_is_8_AC_MSD"  [ C:\Users\HomePC\Documents\Spring 2013\CMOSEDU_PSPICE\MSD\Ch1_MSD_Pspice\_Fig1_25_


 ****     CIRCUIT DESCRIPTION


******************************************************************************




** Creating circuit file "_Fig1_25_K_is_8_AC_MSD.cir" 
** WARNING: THIS AUTOMATICALLY GENERATED FILE MAY BE OVERWRITTEN BY SUBSEQUENT SIMULATIONS

*Libraries: 
* Profile Libraries :
* Local Libraries :
* From [PSPICE NETLIST] section of C:\Cadence\SPB_16.3\tools\PSpice\PSpice.ini file:
.lib "nom.lib" 

*Analysis directives: 
.AC LIN 1000 1k 100Meg
.PROBE V(alias(*)) I(alias(*)) W(alias(*)) D(alias(*)) NOISE(alias(*)) 
.INC "..\SCHEMATIC1.net" 



**** INCLUDING SCHEMATIC1.net ****
* source _FIG1_25_K_IS_8_AC_MSD
V_V1         VIN 0 DC 0Vdc AC 1Vac 
T_T1         VIN 0 N01748 0 Z0=50 TD=80ns  
E_E1         VOUT 0 VIN N01748 1
R_R1         0 N01748  50 TC=0,0 

**** RESUMING _Fig1_25_K_is_8_AC_MSD.cir ****
.END

**** 05/23/13 01:33:52 ******* PSpice 16.3.0 (June 2009) ****** ID# 0 ********

 ** Profile: "SCHEMATIC1-_Fig1_25_K_is_8_AC_MSD"  [ C:\Users\HomePC\Documents\Spring 2013\CMOSEDU_PSPICE\MSD\Ch1_MSD_Pspice\_Fig1_25_


 ****     SMALL SIGNAL BIAS SOLUTION       TEMPERATURE =   27.000 DEG C


******************************************************************************



 NODE   VOLTAGE     NODE   VOLTAGE     NODE   VOLTAGE     NODE   VOLTAGE


(  VIN)    0.0000  ( VOUT)    0.0000  (N01748)    0.0000 




    VOLTAGE SOURCE CURRENTS
    NAME         CURRENT

    V_V1         0.000E+00

    TOTAL POWER DISSIPATION   0.00E+00  WATTS



          JOB CONCLUDED

**** 05/23/13 01:33:52 ******* PSpice 16.3.0 (June 2009) ****** ID# 0 ********

 ** Profile: "SCHEMATIC1-_Fig1_25_K_is_8_AC_MSD"  [ C:\Users\HomePC\Documents\Spring 2013\CMOSEDU_PSPICE\MSD\Ch1_MSD_Pspice\_Fig1_25_


 ****     JOB STATISTICS SUMMARY


******************************************************************************



  Total job time (using Solver 1)   =         .03
