
**** 06/24/13 16:22:47 ***** PSpice 16.6.0 (October 2012) ***** ID# 0 ********

 ** Profile: "SCHEMATIC1-_Fig1_17_AC_MSD"  [ C:\Users\Christian\Desktop\MSD\Ch1_MSD_Pspice\_Fig1_17_AC_MSD\_fig1_17_ac_msd-pspicefile


 ****     CIRCUIT DESCRIPTION


******************************************************************************




** Creating circuit file "_Fig1_17_AC_MSD.cir" 
** WARNING: THIS AUTOMATICALLY GENERATED FILE MAY BE OVERWRITTEN BY SUBSEQUENT SIMULATIONS

*Libraries: 
* Profile Libraries :
* Local Libraries :
* From [PSPICE NETLIST] section of C:\SPB_Data\cdssetup\OrCAD_PSpice/16.6.0/PSpice.ini file:
.lib "nom.lib" 

*Analysis directives: 
.AC LIN 1000 1k 200Meg
.OPTIONS ADVCONV
.PROBE64 V(alias(*)) I(alias(*)) W(alias(*)) D(alias(*)) NOISE(alias(*)) 
.INC "..\SCHEMATIC1.net" 



**** INCLUDING SCHEMATIC1.net ****
* source _FIG1_17_AC_MSD
T_T1         VIN 0 N01155 0 Z0=50 TD=10ns  
R_R1         0 N01155  50 TC=0,0 
V_Vin         VIN 0 DC 0Vdc AC 1Vac 
E_E1         VOUT VIN N01155 0 1

**** RESUMING _Fig1_17_AC_MSD.cir ****
.END

**** 06/24/13 16:22:47 ***** PSpice 16.6.0 (October 2012) ***** ID# 0 ********

 ** Profile: "SCHEMATIC1-_Fig1_17_AC_MSD"  [ C:\Users\Christian\Desktop\MSD\Ch1_MSD_Pspice\_Fig1_17_AC_MSD\_fig1_17_ac_msd-pspicefile


 ****     SMALL SIGNAL BIAS SOLUTION       TEMPERATURE =   27.000 DEG C


******************************************************************************



 NODE   VOLTAGE     NODE   VOLTAGE     NODE   VOLTAGE     NODE   VOLTAGE


(  VIN)    0.0000  ( VOUT)    0.0000  (N01155)    0.0000 




    VOLTAGE SOURCE CURRENTS
    NAME         CURRENT

    V_Vin        0.000E+00

    TOTAL POWER DISSIPATION   0.00E+00  WATTS



          JOB CONCLUDED

**** 06/24/13 16:22:47 ***** PSpice 16.6.0 (October 2012) ***** ID# 0 ********

 ** Profile: "SCHEMATIC1-_Fig1_17_AC_MSD"  [ C:\Users\Christian\Desktop\MSD\Ch1_MSD_Pspice\_Fig1_17_AC_MSD\_fig1_17_ac_msd-pspicefile


 ****     JOB STATISTICS SUMMARY


******************************************************************************



  Total job time (using Solver 1)   =         .02
