
**** 07/02/13 16:40:50 ***** PSpice 16.6.0 (October 2012) ***** ID# 0 ********

 ** Profile: "Fig10_23-tran"  [ C:\Users\jbaker\Desktop\Chap10_PSpice\Fig10_23\Fig10_23-pspicefiles\Fig10_23\tran.sim ] 


 ****     CIRCUIT DESCRIPTION


******************************************************************************




** Creating circuit file "tran.cir" 
** WARNING: THIS AUTOMATICALLY GENERATED FILE MAY BE OVERWRITTEN BY SUBSEQUENT SIMULATIONS

*Libraries: 
* Profile Libraries :
* Local Libraries :
.LIB "../../../Fig10_23-pspicefiles/Fig10_23.lib" 
* From [PSPICE NETLIST] section of C:\SPB_Data\cdssetup\OrCAD_PSpice/16.6.0/PSpice.ini file:
.lib "nom.lib" 

*Analysis directives: 
.TRAN  0 16ns 0 SKIPBP 
.OPTIONS ADVCONV
.PROBE64 V(alias(*)) I(alias(*)) W(alias(*)) D(alias(*)) NOISE(alias(*)) 
.INC "..\Fig10_23.net" 



**** INCLUDING Fig10_23.net ****
* source FIG10_23
V_Vin         VIN GND  
+PULSE 0 1 5n 100p 100p 5n 30n
V_VDD         VDD 0 DC 1  
C_C1         VOUT 0  50f IC=0 TC=0,0 
M_M1         VOUT VDD N05633 0 N_50n  
+ L=50n  
+ W=500n         
M_M2         N05633 VDD N05629 0 N_50n  
+ L=50n  
+ W=500n         
M_M3         N05629 VDD N05625 0 N_50n  
+ L=50n  
+ W=500n         
M_M4         N05625 VDD N05621 0 N_50n  
+ L=50n  
+ W=500n         
M_M5         N05621 VDD N05617 0 N_50n  
+ L=50n  
+ W=500n         
M_M6         N05617 VDD N05613 0 N_50n  
+ L=50n  
+ W=500n         
M_M7         N05613 VDD N05596 0 N_50n  
+ L=50n  
+ W=500n         
M_M8         N05596 VDD N05592 0 N_50n  
+ L=50n  
+ W=500n         
M_M9         N05592 VDD N05588 0 N_50n  
+ L=50n  
+ W=500n         
M_M10         N05588 VDD VIN 0 N_50n  
+ L=50n  
+ W=500n         

**** RESUMING tran.cir ****
.END

WARNING(ORPSIM-15623): model N_50n: Warning: toxe, toxp and dtox all given and toxe != toxp + dtox; dtox ignored

WARNING(ORPSIM-15499): Mosfet M_M1, model N_50n: Toxp = 7e-010 is less than 10A

WARNING(ORPSIM-15532): Acde = 0.290715 is too small

WARNING(ORPSIM-15535): Mosfet M_M1, model N_50n: Leff = 2.6e-008 may be too small

WARNING(ORPSIM-15536): Mosfet M_M1, model N_50n: Leff for CV = 2.6e-008 may be too small

WARNING(ORPSIM-15532): Acde = 0.290715 is too small

WARNING(ORPSIM-15535): Mosfet M_M2, model N_50n: Leff = 2.6e-008 may be too small

WARNING(ORPSIM-15536): Mosfet M_M2, model N_50n: Leff for CV = 2.6e-008 may be too small

WARNING(ORPSIM-15532): Acde = 0.290715 is too small

WARNING(ORPSIM-15535): Mosfet M_M3, model N_50n: Leff = 2.6e-008 may be too small

WARNING(ORPSIM-15536): Mosfet M_M3, model N_50n: Leff for CV = 2.6e-008 may be too small

WARNING(ORPSIM-15532): Acde = 0.290715 is too small

WARNING(ORPSIM-15535): Mosfet M_M4, model N_50n: Leff = 2.6e-008 may be too small

WARNING(ORPSIM-15536): Mosfet M_M4, model N_50n: Leff for CV = 2.6e-008 may be too small

WARNING(ORPSIM-15532): Acde = 0.290715 is too small

WARNING(ORPSIM-15535): Mosfet M_M5, model N_50n: Leff = 2.6e-008 may be too small

WARNING(ORPSIM-15536): Mosfet M_M5, model N_50n: Leff for CV = 2.6e-008 may be too small

WARNING(ORPSIM-15532): Acde = 0.290715 is too small

WARNING(ORPSIM-15535): Mosfet M_M6, model N_50n: Leff = 2.6e-008 may be too small

WARNING(ORPSIM-15536): Mosfet M_M6, model N_50n: Leff for CV = 2.6e-008 may be too small

WARNING(ORPSIM-15532): Acde = 0.290715 is too small

WARNING(ORPSIM-15535): Mosfet M_M7, model N_50n: Leff = 2.6e-008 may be too small

WARNING(ORPSIM-15536): Mosfet M_M7, model N_50n: Leff for CV = 2.6e-008 may be too small

WARNING(ORPSIM-15532): Acde = 0.290715 is too small

WARNING(ORPSIM-15535): Mosfet M_M8, model N_50n: Leff = 2.6e-008 may be too small

WARNING(ORPSIM-15536): Mosfet M_M8, model N_50n: Leff for CV = 2.6e-008 may be too small

WARNING(ORPSIM-15532): Acde = 0.290715 is too small

WARNING(ORPSIM-15535): Mosfet M_M9, model N_50n: Leff = 2.6e-008 may be too small

WARNING(ORPSIM-15536): Mosfet M_M9, model N_50n: Leff for CV = 2.6e-008 may be too small

WARNING(ORPSIM-15532): Acde = 0.290715 is too small

WARNING(ORPSIM-15535): Mosfet M_M10, model N_50n: Leff = 2.6e-008 may be too small

WARNING(ORPSIM-15536): Mosfet M_M10, model N_50n: Leff for CV = 2.6e-008 may be too small

**** 07/02/13 16:40:50 ***** PSpice 16.6.0 (October 2012) ***** ID# 0 ********

 ** Profile: "Fig10_23-tran"  [ C:\Users\jbaker\Desktop\Chap10_PSpice\Fig10_23\Fig10_23-pspicefiles\Fig10_23\tran.sim ] 


 ****     MOSFET MODEL PARAMETERS


******************************************************************************




               N_50n           
               NMOS            
  T_Measured   27            
   T_Current   27            
       LEVEL    8            
           L  100.000000E-06 
           W  100.000000E-06 
         VTO     .22         
          KP  138.125800E-06 
       GAMMA    0            
      LAMBDA    0            
         RSH    3            
          IS    1.000000E-15 
          JS  100.000000E-06 
          PB    1            
        PBSW    1            
          CJ  500.000000E-06 
        CJSW  500.000000E-12 
        CGSO  623.800000E-12 
        CGDO  623.800000E-12 
        CGBO   25.600000E-12 
         TOX   15.000000E-09 
          XJ   20.000000E-09 
       UCRIT   10.000000E+03 
       DELTA     .01         
      DIOMOD    1            
         VFB    -.55         
          K1     .35         
          K2     .05         
        LETA    0            
        WETA    0            
          U0     .032        
       XPART    0            
        VTH0     .22         
          K3    0            
        DVT0    2.8          
        DVT1     .52         
          UA  160.000000E-12 
          UB   11.000000E-18 
          UC  -30.000000E-12 
        VSAT  110.000000E+03 
        RDSW  150            
        VOFF    -.15         
     NFACTOR    1.2          
        CDSC  200.000000E-06 
        PCLM     .18         
      PDIBL1     .028        
      PDIBL2     .022        
       DROUT     .45         
      PSCBE1  814.000000E+06 
      PSCBE2  100.000000E-09 
          A0    2            
          A1    0            
          A2    1            
         LDD    0            
        LITL   30.000000E-09 
         KT1    -.21         
         KT2    -.042        
         UA1    1.000000E-09 
         UB1 -350.000000E-21 
         UC1    0            
          AT   53.000000E+03 
        PVAG   10.000000E-21 
        KETA     .04         
        ETA0     .15         
        ETAB    0            
        DSUB    2            
       NGATE  500.000000E+18 
      MOBMOD    0            
         AGS   10.000000E-21 
       DVT1W    0            
       DVT2W    0            
        PRWG    0            
        PRWB   68.000000E-12 
     PDIBLCB   -5.000000E-03 
          B0  -10.000000E-21 
      ALPHA0     .074        
        CGSL  249.500000E-12 
        CGDL  249.500000E-12 
        LINT   12.000000E-09 
        WINT    5.000000E-09 
         DLC   12.000000E-09 
         DWC    5.000000E-09 
          CF  124.392700E-12 
        NOIA  100.000000E+18 
        NOIB   50.000000E+03 
        NOIC   -1.400000E-12 
         VTM     .025864     
    PARAMCHK    1            
     VERSION    4.1          
       PBSWG    1            
       MJSWG     .33         
       CJSWG  500.000000E-12 
      ALPHA1    5.000000E-03 
        TOXM    1.400000E-09 
         TPB    5.000000E-03 
         TCJ    1.000000E-03 
       TPBSW    5.000000E-03 
       TCJSW    1.000000E-03 
      TPBSWG    5.000000E-03 
      TCJSWG    1.000000E-03 
        NOFF     .9          
      VOFFCV     .02         
         LLC    0            
         LWC    0            
        LWLC    0            
         WLC    0            
         WWC    0            
        WWLC    0            
BSIM4oxideTrapDensityC    8.750000E+09 
    rbodyMod    1            
    rgateMod    1            
      igcMod    1            
      igbMod    1            
        toxe    1.400000E-09 
        toxp  700.000000E-12 
        ndep    2.800000E+18 
       dvtp0  100.000000E-09 
          eu    1.67         
       dvtp1     .05         
        lpe0   57.500000E-09 
        lpeb  230.000000E-12 
        minv     .05         
         rsw  150            
         rdw  150            
      fprout     .2          
       pdits     .2          
      pditsd     .23         
      pditsl    2.300000E+06 
       agidl  200.000000E-06 
       bgidl    2.100000E+09 
       cgidl  200.000000E-06 
        aigc     .017        
        bigc    2.800000E-03 
        cigc    2.000000E-03 
       aigsd     .017        
       bigsd    2.800000E-03 
       cigsd    2.000000E-03 
     aigbacc     .012        
     bigbacc    2.800000E-03 
     cigbacc    2.000000E-03 
     aigbinv     .014        
     bigbinv    4.000000E-03 
     cigbinv    4.000000E-03 
      xrcrg2    5            
      toxref    1.400000E-09 
    ijthdfwd     .01         
    ijthsfwd     .01         
    ijthdrev    1.000000E-03 
    ijthsrev    1.000000E-03 
       gbmin  100.000000E-12 
        rbdb   15            
        rbsb   15            
        rbpb    5            
        rbps   15            
        rbpd   15            
     ckappas     .02         
     ckappad     .02         
       dlcig   12.000000E-09 
         dwj    0            
        rshg     .4          
      CJSWGD  500.000000E-12 
      PBSWGD    1            
      MJSWGD     .33         
      CJSWGS  500.000000E-12 
      PBSWGS    1            
      MJSWGS     .33         
        JSWS   10.000000E-12 
       JSWGS  100.000000E-12 
        JSWD   10.000000E-12 
       JSWGD  100.000000E-12 
        coxe     .024665     
        coxp     .049331     
BSIM4factor1   64.807410E-06 


WARNING(ORPSIM-15623): model N_50n: Warning: toxe, toxp and dtox all given and toxe != toxp + dtox; dtox ignored

WARNING(ORPSIM-15499): Mosfet M_M1, model N_50n: Toxp = 7e-010 is less than 10A

WARNING(ORPSIM-15532): Acde = 0.290715 is too small

WARNING(ORPSIM-15535): Mosfet M_M1, model N_50n: Leff = 2.6e-008 may be too small

WARNING(ORPSIM-15536): Mosfet M_M1, model N_50n: Leff for CV = 2.6e-008 may be too small

WARNING(ORPSIM-15532): Acde = 0.290715 is too small

WARNING(ORPSIM-15535): Mosfet M_M2, model N_50n: Leff = 2.6e-008 may be too small

WARNING(ORPSIM-15536): Mosfet M_M2, model N_50n: Leff for CV = 2.6e-008 may be too small

WARNING(ORPSIM-15532): Acde = 0.290715 is too small

WARNING(ORPSIM-15535): Mosfet M_M3, model N_50n: Leff = 2.6e-008 may be too small

WARNING(ORPSIM-15536): Mosfet M_M3, model N_50n: Leff for CV = 2.6e-008 may be too small

WARNING(ORPSIM-15532): Acde = 0.290715 is too small

WARNING(ORPSIM-15535): Mosfet M_M4, model N_50n: Leff = 2.6e-008 may be too small

WARNING(ORPSIM-15536): Mosfet M_M4, model N_50n: Leff for CV = 2.6e-008 may be too small

WARNING(ORPSIM-15532): Acde = 0.290715 is too small

WARNING(ORPSIM-15535): Mosfet M_M5, model N_50n: Leff = 2.6e-008 may be too small

WARNING(ORPSIM-15536): Mosfet M_M5, model N_50n: Leff for CV = 2.6e-008 may be too small

WARNING(ORPSIM-15532): Acde = 0.290715 is too small

WARNING(ORPSIM-15535): Mosfet M_M6, model N_50n: Leff = 2.6e-008 may be too small

WARNING(ORPSIM-15536): Mosfet M_M6, model N_50n: Leff for CV = 2.6e-008 may be too small

WARNING(ORPSIM-15532): Acde = 0.290715 is too small

WARNING(ORPSIM-15535): Mosfet M_M7, model N_50n: Leff = 2.6e-008 may be too small

WARNING(ORPSIM-15536): Mosfet M_M7, model N_50n: Leff for CV = 2.6e-008 may be too small

WARNING(ORPSIM-15532): Acde = 0.290715 is too small

WARNING(ORPSIM-15535): Mosfet M_M8, model N_50n: Leff = 2.6e-008 may be too small

WARNING(ORPSIM-15536): Mosfet M_M8, model N_50n: Leff for CV = 2.6e-008 may be too small

WARNING(ORPSIM-15532): Acde = 0.290715 is too small

WARNING(ORPSIM-15535): Mosfet M_M9, model N_50n: Leff = 2.6e-008 may be too small

WARNING(ORPSIM-15536): Mosfet M_M9, model N_50n: Leff for CV = 2.6e-008 may be too small

WARNING(ORPSIM-15532): Acde = 0.290715 is too small

WARNING(ORPSIM-15535): Mosfet M_M10, model N_50n: Leff = 2.6e-008 may be too small

WARNING(ORPSIM-15536): Mosfet M_M10, model N_50n: Leff for CV = 2.6e-008 may be too small

ERROR(ORPSIM-15138): Convergence problem in transient analysis at Time =  3.200E-12.
         Time step =  2.980E-21, minimum allowable step size =  16.00E-21

  These voltages failed to converge:

    V(VIN)                    =    63.74mV  \   351.53mV
    V(GND)                    =    63.74mV  \   351.53mV
    V(VOUT)                   =    6.703mV  \    11.57mV
    V(N05633)                 =   -50.50mV  \   229.17mV
    V(N05629)                 =    56.88mV  \   323.01mV
    V(N05625)                 =    64.38mV  \   347.30mV
    V(N05621)                 =    63.61mV  \   350.96mV
    V(N05617)                 =    63.71mV  \   351.45mV
    V(N05613)                 =    63.74mV  \   351.52mV
    V(N05596)                 =    63.74mV  \   351.52mV
    V(N05592)                 =    63.74mV  \   351.53mV
    V(N05588)                 =    63.74mV  \   351.53mV

  These supply currents failed to converge:

    I(V_VDD)                  =  -128.20KA  \   -2.304mA

  These devices failed to converge:
    M_M1      M_M2      M_M3      M_M4      M_M5      M_M6      M_M7      
    M_M8      M_M9      M_M10     

ERROR(ORPSIM-15659): Discontinuing simulation due to convergence problem



  Last node voltages tried were:

 NODE   VOLTAGE     NODE   VOLTAGE     NODE   VOLTAGE     NODE   VOLTAGE


(  GND)     .0637  (  VDD)    1.0000  (  VIN)     .0637  ( VOUT)     .0067      

(N05588)     .0637 (N05592)     .0637 (N05596)     .0637 (N05613)     .0637     

(N05617)     .0637 (N05621)     .0636 (N05625)     .0644 (N05629)     .0569     

(N05633)    -.0505 


**** Interrupt ****
