
**** 07/02/13 15:30:26 ***** PSpice 16.6.0 (October 2012) ***** ID# 0 ********

 ** Profile: "Fig9_8-dc"  [ C:\Users\jbaker\Desktop\Chap9_PSpice\Fig9_8\fig9_8-pspicefiles\fig9_8\dc.sim ] 


 ****     CIRCUIT DESCRIPTION


******************************************************************************




** Creating circuit file "dc.cir" 
** WARNING: THIS AUTOMATICALLY GENERATED FILE MAY BE OVERWRITTEN BY SUBSEQUENT SIMULATIONS

*Libraries: 
* Profile Libraries :
* Local Libraries :
.LIB "../../../Fig9_8-pspicefiles/Fig9_8.lib" 
* From [PSPICE NETLIST] section of C:\SPB_Data\cdssetup\OrCAD_PSpice/16.6.0/PSpice.ini file:
.lib "nom.lib" 

*Analysis directives: 
.DC LIN I_Injected -1u 1u 10n 
.OPTIONS ADVCONV
.PROBE64 V(alias(*)) I(alias(*)) W(alias(*)) D(alias(*)) NOISE(alias(*)) 
.INC "..\Fig9_8.net" 



**** INCLUDING Fig9_8.net ****
* source FIG9_8
M_M1         N02644 N02644 0 0 N_1u  
+ L=1u  
+ W=10u         
M_M2         VD2 N02644 0 0 N_1u  
+ L=1u  
+ W=10u         
V_VDD         N02627 0 DC 5  
I_Injected         0 VD2 DC 0  
I_Ibias         N02627 VG4 DC 1u  
M_M3         VG4 VG4 N02644 0 N_1u  
+ L=1u  
+ W=10u         
M_M4         N02627 VG4 VD2 0 N_1u  
+ L=1u  
+ W=10u         

**** RESUMING dc.cir ****
.END

**** 07/02/13 15:30:26 ***** PSpice 16.6.0 (October 2012) ***** ID# 0 ********

 ** Profile: "Fig9_8-dc"  [ C:\Users\jbaker\Desktop\Chap9_PSpice\Fig9_8\fig9_8-pspicefiles\fig9_8\dc.sim ] 


 ****     MOSFET MODEL PARAMETERS


******************************************************************************




               N_1u            
               NMOS            
       LEVEL    3            
           L  100.000000E-06 
           W  100.000000E-06 
          LD  100.000000E-09 
         VTO     .8          
          KP  120.000000E-06 
       GAMMA     .5          
         PHI     .7          
      LAMBDA    0            
          IS   10.000000E-15 
          JS    0            
          PB    1            
        PBSW    1            
          CJ  400.000000E-06 
        CJSW  300.000000E-12 
        MJSW     .5          
        CGSO  200.000000E-12 
        CGDO  200.000000E-12 
        CGBO  100.000000E-12 
        NSUB  100.000000E+15 
         NFS    1.000000E+12 
         TOX   20.000000E-09 
          XJ  500.000000E-09 
          UO  650            
       UCRIT   10.000000E+03 
        VMAX  100.000000E+03 
       DELTA    3            
       THETA     .1          
         ETA    3.000000E-06 
       KAPPA     .3          
      DIOMOD    1            
         VFB    0            
        LETA    0            
        WETA    0            
          U0    0            
        TEMP    0            
         VDD    5            
       XPART    0            



          JOB CONCLUDED

**** 07/02/13 15:30:26 ***** PSpice 16.6.0 (October 2012) ***** ID# 0 ********

 ** Profile: "Fig9_8-dc"  [ C:\Users\jbaker\Desktop\Chap9_PSpice\Fig9_8\fig9_8-pspicefiles\fig9_8\dc.sim ] 


 ****     JOB STATISTICS SUMMARY


******************************************************************************



  Total job time (using Solver 1)   =         .02
