
**** 06/29/13 10:18:37 ****** PSpice Lite (October 2012) ****** ID# 10813 ****

 ** Profile: "Fig1_22-tran"  [ C:\Users\jbaker\Desktop\PSpice_CMOSedu\Chap1_PSpice\Fig1_22\fig1_22-pspicefiles\fig1_22\tran.sim ] 


 ****     CIRCUIT DESCRIPTION


******************************************************************************




** Creating circuit file "tran.cir" 
** WARNING: THIS AUTOMATICALLY GENERATED FILE MAY BE OVERWRITTEN BY SUBSEQUENT SIMULATIONS

*Libraries: 
* Profile Libraries :
* Local Libraries :
* From [PSPICE NETLIST] section of C:\SPB_Data\cdssetup\OrCAD_PSpice/16.6.0/PSpice.ini file:
.lib "nomd.lib" 

*Analysis directives: 
.TRAN  0 16m 0 10u 
.OPTIONS ADVCONV
.PROBE64 V(alias(*)) I(alias(*)) W(alias(*)) D(alias(*)) NOISE(alias(*)) 
.INC "..\Fig1_22.net" 



**** INCLUDING Fig1_22.net ****
* source FIG1_22
R_R1         VIN VOUT  1k TC=0,0 
V_Vin         VIN 0  AC 0
+SIN 0 1 200 0 0 0
C_C1         0 VOUT  1u  TC=0,0 
C_C2         VIN VOUT  2u  TC=0,0 

**** RESUMING tran.cir ****
.END

**** 06/29/13 10:18:37 ****** PSpice Lite (October 2012) ****** ID# 10813 ****

 ** Profile: "Fig1_22-tran"  [ C:\Users\jbaker\Desktop\PSpice_CMOSedu\Chap1_PSpice\Fig1_22\fig1_22-pspicefiles\fig1_22\tran.sim ] 


 ****     INITIAL TRANSIENT SOLUTION       TEMPERATURE =   27.000 DEG C


******************************************************************************



 NODE   VOLTAGE     NODE   VOLTAGE     NODE   VOLTAGE     NODE   VOLTAGE


(  VIN)    0.0000  ( VOUT)    0.0000  




    VOLTAGE SOURCE CURRENTS
    NAME         CURRENT

    V_Vin        0.000E+00

    TOTAL POWER DISSIPATION   0.00E+00  WATTS



          JOB CONCLUDED

**** 06/29/13 10:18:37 ****** PSpice Lite (October 2012) ****** ID# 10813 ****

 ** Profile: "Fig1_22-tran"  [ C:\Users\jbaker\Desktop\PSpice_CMOSedu\Chap1_PSpice\Fig1_22\fig1_22-pspicefiles\fig1_22\tran.sim ] 


 ****     JOB STATISTICS SUMMARY


******************************************************************************



  Total job time (using Solver 1)   =         .03
