
**** 06/29/13 10:24:50 ****** PSpice Lite (October 2012) ****** ID# 10813 ****

 ** Profile: "Fig1_32-ac"  [ C:\Users\jbaker\Desktop\PSpice_CMOSedu\Chap1_PSpice\Fig1_32\fig1_32-pspicefiles\fig1_32\ac.sim ] 


 ****     CIRCUIT DESCRIPTION


******************************************************************************




** Creating circuit file "ac.cir" 
** WARNING: THIS AUTOMATICALLY GENERATED FILE MAY BE OVERWRITTEN BY SUBSEQUENT SIMULATIONS

*Libraries: 
* Profile Libraries :
* Local Libraries :
* From [PSPICE NETLIST] section of C:\SPB_Data\cdssetup\OrCAD_PSpice/16.6.0/PSpice.ini file:
.lib "nomd.lib" 

*Analysis directives: 
.AC LIN 100 400MEG 600MEG
.OPTIONS ADVCONV
.PROBE64 V(alias(*)) I(alias(*)) W(alias(*)) D(alias(*)) NOISE(alias(*)) 
.INC "..\Fig1_32.net" 



**** INCLUDING Fig1_32.net ****
* source FIG1_32
I_I1         VOUT 0 DC 0 AC 1 0
C_C1         0 VOUT  10p  TC=0,0 
R_R1         0 VOUT  1k TC=0,0 
L_L1         VOUT 0  10n  

**** RESUMING ac.cir ****
.END

**** 06/29/13 10:24:50 ****** PSpice Lite (October 2012) ****** ID# 10813 ****

 ** Profile: "Fig1_32-ac"  [ C:\Users\jbaker\Desktop\PSpice_CMOSedu\Chap1_PSpice\Fig1_32\fig1_32-pspicefiles\fig1_32\ac.sim ] 


 ****     SMALL SIGNAL BIAS SOLUTION       TEMPERATURE =   27.000 DEG C


******************************************************************************



 NODE   VOLTAGE     NODE   VOLTAGE     NODE   VOLTAGE     NODE   VOLTAGE


( VOUT)    0.0000  




    VOLTAGE SOURCE CURRENTS
    NAME         CURRENT


    TOTAL POWER DISSIPATION   0.00E+00  WATTS



          JOB CONCLUDED

**** 06/29/13 10:24:50 ****** PSpice Lite (October 2012) ****** ID# 10813 ****

 ** Profile: "Fig1_32-ac"  [ C:\Users\jbaker\Desktop\PSpice_CMOSedu\Chap1_PSpice\Fig1_32\fig1_32-pspicefiles\fig1_32\ac.sim ] 


 ****     JOB STATISTICS SUMMARY


******************************************************************************



  Total job time (using Solver 1)   =        0.00
