
**** 07/05/13 10:31:24 ***** PSpice 16.6.0 (October 2012) ***** ID# 0 ********

 ** Profile: "_Fig4_13_K_is_4_AC_MSD-_Fig4_13_K_is_4_AC_MSD"  [ C:\Users\Christian\Desktop\MSD\Ch4_MSD_PSpice\_Fig4_13_K_is_4_AC_MSD\


 ****     CIRCUIT DESCRIPTION


******************************************************************************




** Creating circuit file "_Fig4_13_K_is_4_AC_MSD.cir" 
** WARNING: THIS AUTOMATICALLY GENERATED FILE MAY BE OVERWRITTEN BY SUBSEQUENT SIMULATIONS

*Libraries: 
* Profile Libraries :
* Local Libraries :
* From [PSPICE NETLIST] section of C:\SPB_Data\cdssetup\OrCAD_PSpice/16.6.0/PSpice.ini file:
.lib "nom.lib" 

*Analysis directives: 
.AC LIN 1000 1k 100MEG
.OPTIONS ADVCONV
.PROBE64 V(alias(*)) I(alias(*)) W(alias(*)) D(alias(*)) NOISE(alias(*)) 
.INC "..\_Fig4_13_K_is_4_AC_MSD.net" 



**** INCLUDING _Fig4_13_K_is_4_AC_MSD.net ****
* source _FIG4_13_K_IS_4_AC_MSD
R_R2         0 N25598  50 TC=0,0 
T_T2         N25598 0 VOUT 0 Z0=50 TD=10n  
T_T1         N25580 0 N25570 0 Z0=50 TD=40n  
R_R1         0 N25570  50 TC=0,0 
V_V1         N25580 0 DC 0Vdc AC 1Vac 
E_E3         N25602 0 0 N25598 1
E_E1         N25608 0 N25580 N25570 1
E_E2         VOUT 0 N25608 N25602 1

**** RESUMING _Fig4_13_K_is_4_AC_MSD.cir ****
.END

**** 07/05/13 10:31:24 ***** PSpice 16.6.0 (October 2012) ***** ID# 0 ********

 ** Profile: "_Fig4_13_K_is_4_AC_MSD-_Fig4_13_K_is_4_AC_MSD"  [ C:\Users\Christian\Desktop\MSD\Ch4_MSD_PSpice\_Fig4_13_K_is_4_AC_MSD\


 ****     SMALL SIGNAL BIAS SOLUTION       TEMPERATURE =   27.000 DEG C


******************************************************************************



 NODE   VOLTAGE     NODE   VOLTAGE     NODE   VOLTAGE     NODE   VOLTAGE


( VOUT)    0.0000  (N25570)    0.0000 (N25580)    0.0000 (N25598)    0.0000     

(N25602)    0.0000 (N25608)    0.0000 




    VOLTAGE SOURCE CURRENTS
    NAME         CURRENT

    V_V1         0.000E+00

    TOTAL POWER DISSIPATION   0.00E+00  WATTS



          JOB CONCLUDED

**** 07/05/13 10:31:24 ***** PSpice 16.6.0 (October 2012) ***** ID# 0 ********

 ** Profile: "_Fig4_13_K_is_4_AC_MSD-_Fig4_13_K_is_4_AC_MSD"  [ C:\Users\Christian\Desktop\MSD\Ch4_MSD_PSpice\_Fig4_13_K_is_4_AC_MSD\


 ****     JOB STATISTICS SUMMARY


******************************************************************************



  Total job time (using Solver 1)   =         .02
