
**** 06/29/13 11:03:11 ****** PSpice Lite (October 2012) ****** ID# 10813 ****

 ** Profile: "Ex8_11-noise"  [ C:\Users\jbaker\Desktop\PSpice_CMOSedu\Chap8_PSpice\Ex8_11\Ex8_11-pspicefiles\Ex8_11\noise.sim ] 


 ****     CIRCUIT DESCRIPTION


******************************************************************************




** Creating circuit file "noise.cir" 
** WARNING: THIS AUTOMATICALLY GENERATED FILE MAY BE OVERWRITTEN BY SUBSEQUENT SIMULATIONS

*Libraries: 
* Profile Libraries :
* Local Libraries :
* From [PSPICE NETLIST] section of C:\SPB_Data\cdssetup\OrCAD_PSpice/16.6.0/PSpice.ini file:
.lib "nomd.lib" 

*Analysis directives: 
.AC DEC 100 1 1k
.NOISE V([VOUT]) V_Vs 
.OPTIONS ADVCONV
.PROBE64 V(alias(*)) I(alias(*)) W(alias(*)) D(alias(*)) NOISE(alias(*)) 
.INC "..\Ex8_11.net" 



**** INCLUDING Ex8_11.net ****
* source EX8_11
R_R1         0 VOUT  1k TC=0,0 
V_Vs         VS 0 DC 0 AC 1 0
G_G1         VOUT VS VOUT VS 1e-4

**** RESUMING noise.cir ****
.END

**** 06/29/13 11:03:11 ****** PSpice Lite (October 2012) ****** ID# 10813 ****

 ** Profile: "Ex8_11-noise"  [ C:\Users\jbaker\Desktop\PSpice_CMOSedu\Chap8_PSpice\Ex8_11\Ex8_11-pspicefiles\Ex8_11\noise.sim ] 


 ****     SMALL SIGNAL BIAS SOLUTION       TEMPERATURE =   27.000 DEG C


******************************************************************************



 NODE   VOLTAGE     NODE   VOLTAGE     NODE   VOLTAGE     NODE   VOLTAGE


(   VS)    0.0000  ( VOUT)    0.0000  




    VOLTAGE SOURCE CURRENTS
    NAME         CURRENT

    V_Vs         0.000E+00

    TOTAL POWER DISSIPATION   0.00E+00  WATTS



          JOB CONCLUDED

**** 06/29/13 11:03:11 ****** PSpice Lite (October 2012) ****** ID# 10813 ****

 ** Profile: "Ex8_11-noise"  [ C:\Users\jbaker\Desktop\PSpice_CMOSedu\Chap8_PSpice\Ex8_11\Ex8_11-pspicefiles\Ex8_11\noise.sim ] 


 ****     JOB STATISTICS SUMMARY


******************************************************************************



  Total job time (using Solver 1)   =         .02
