
**** 06/11/13 11:10:50 ******* PSpice 16.3.0 (June 2009) ****** ID# 0 ********

 ** Profile: "SCHEMATIC1-_Fig2_53_VOS_MSD"  [ C:\Users\HomePC\Documents\Spring 2013\PSpice_CMOSedu\MSD\Ch2_MSD_Pspice\_Fig2_53_VOS_MS


 ****     CIRCUIT DESCRIPTION


******************************************************************************




** Creating circuit file "_Fig2_53_VOS_MSD.cir" 
** WARNING: THIS AUTOMATICALLY GENERATED FILE MAY BE OVERWRITTEN BY SUBSEQUENT SIMULATIONS

*Libraries: 
* Profile Libraries :
* Local Libraries :
* From [PSPICE NETLIST] section of C:\Cadence\SPB_16.3\tools\PSpice\PSpice.ini file:
.lib "nom.lib" 

*Analysis directives: 
.TRAN  0 500ns 0 .01n SKIPBP 
.PROBE V(alias(*)) I(alias(*)) W(alias(*)) D(alias(*)) NOISE(alias(*)) 
.INC "..\SCHEMATIC1.net" 



**** INCLUDING SCHEMATIC1.net ****
* source _FIG2_53_VOS_MSD
V_Vphi3         PHI3 0  
+PULSE 0 1 5n 200p 200p 4n 10n
V_VCM         VCM 0 DC .5  
V_Vphi1         PHI1 0  
+PULSE 0 1 0 200p 200p 4n 10n
V_VDD         VDD 0 DC 1  
V_Vphi2         PHI2 0  
+PULSE 0 1 0 200p 200p 4n 10n
X_U12_S1    PHI3 U12_VTRIP VOPP VOUTP SCHEMATIC1_U12_S1 
R_U12_R1         0 U12_VTRIP  100Meg TC=0,0 
R_U12_R2         U12_VTRIP VDD  100Meg TC=0,0 
X_U2_S1    PHI2 U2_VTRIP VINSP N23071 SCHEMATIC1_U2_S1 
R_U2_R1         0 U2_VTRIP  100Meg TC=0,0 
R_U2_R2         U2_VTRIP VDD  100Meg TC=0,0 
C_CIB         N22809 VINP  1p  TC=0,0 
R_U9_R3         U9_N00417 U9_N00447  .0001 TC=0,0 
R_U9_RT         U9_N00417 VOPP  1 TC=0,0 
R_U9_RB         VOPM U9_N00417  1 TC=0,0 
R_U9_R4         U9_N00417 U9_N01744  .0001 TC=0,0 
G_U9_G1         VOPP U9_N00405 N23549 VINM 100Meg
G_U9_G2         U9_N00405 VOPM N23549 VINM 100Meg
R_U9_R5         U9_N00405 U9_N00417  .0001 TC=0,0 
G_U9_G3         U9_N00447 0 VCM U9_N01744 100Meg
V_Vinp         VINSP 0  
+SIN .5 .5 2.5Meg 0 0 0
X_U3_S1    PHI3 U3_VTRIP N23071 N22809 SCHEMATIC1_U3_S1 
R_U3_R1         0 U3_VTRIP  100Meg TC=0,0 
R_U3_R2         U3_VTRIP VDD  100Meg TC=0,0 
C_CLT         VOUTP 0  10p  TC=0,0 
R_R1         0 VOPP  10G TC=0,0 
X_U13_S1    PHI3 U13_VTRIP VOPM VOUTM SCHEMATIC1_U13_S1 
R_U13_R1         0 U13_VTRIP  100Meg TC=0,0 
R_U13_R2         U13_VTRIP VDD  100Meg TC=0,0 
C_CLB         0 VOUTM  10p  TC=0,0 
C_CFB         VOPM VINP  1p  TC=0,0 
C_CFT         VOPP VINM  1p  TC=0,0 
X_U5_S1    PHI2 U5_VTRIP VCM N22809 SCHEMATIC1_U5_S1 
R_U5_R1         0 U5_VTRIP  100Meg TC=0,0 
R_U5_R2         U5_VTRIP VDD  100Meg TC=0,0 
C_CIT         N23071 VINM  1p  TC=0,0 
X_U8_S1    PHI1 U8_VTRIP VINP VOPM SCHEMATIC1_U8_S1 
R_U8_R1         0 U8_VTRIP  100Meg TC=0,0 
R_U8_R2         U8_VTRIP VDD  100Meg TC=0,0 
X_U10_S1    PHI1 U10_VTRIP VINM VOPP SCHEMATIC1_U10_S1 
R_U10_R1         0 U10_VTRIP  100Meg TC=0,0 
R_U10_R2         U10_VTRIP VDD  100Meg TC=0,0 
V_VOS         N23549 VINP DC 100mV  

.subckt SCHEMATIC1_U12_S1 1 2 3 4  
S_U12_S1         3 4 1 2 _U12_S1
RS_U12_S1         1 2 1G
.MODEL         _U12_S1 VSWITCH Roff=1e6 Ron=1.0 Voff=0.0V Von=0.5V
.ends SCHEMATIC1_U12_S1

.subckt SCHEMATIC1_U2_S1 1 2 3 4  
S_U2_S1         3 4 1 2 _U2_S1
RS_U2_S1         1 2 1G
.MODEL         _U2_S1 VSWITCH Roff=1e6 Ron=1.0 Voff=0.0V Von=0.5V
.ends SCHEMATIC1_U2_S1

.subckt SCHEMATIC1_U3_S1 1 2 3 4  
S_U3_S1         3 4 1 2 _U3_S1
RS_U3_S1         1 2 1G
.MODEL         _U3_S1 VSWITCH Roff=1e6 Ron=1.0 Voff=0.0V Von=0.5V
.ends SCHEMATIC1_U3_S1

.subckt SCHEMATIC1_U13_S1 1 2 3 4  
S_U13_S1         3 4 1 2 _U13_S1
RS_U13_S1         1 2 1G
.MODEL         _U13_S1 VSWITCH Roff=1e6 Ron=1.0 Voff=0.0V Von=0.5V
.ends SCHEMATIC1_U13_S1

.subckt SCHEMATIC1_U5_S1 1 2 3 4  
S_U5_S1         3 4 1 2 _U5_S1
RS_U5_S1         1 2 1G
.MODEL         _U5_S1 VSWITCH Roff=1e6 Ron=1.0 Voff=0.0V Von=0.5V
.ends SCHEMATIC1_U5_S1

.subckt SCHEMATIC1_U8_S1 1 2 3 4  
S_U8_S1         3 4 1 2 _U8_S1
RS_U8_S1         1 2 1G
.MODEL         _U8_S1 VSWITCH Roff=1e6 Ron=1.0 Voff=0.0V Von=0.5V
.ends SCHEMATIC1_U8_S1

.subckt SCHEMATIC1_U10_S1 1 2 3 4  
S_U10_S1         3 4 1 2 _U10_S1
RS_U10_S1         1 2 1G
.MODEL         _U10_S1 VSWITCH Roff=1e6 Ron=1.0 Voff=0.0V Von=0.5V
.ends SCHEMATIC1_U10_S1

**** RESUMING _Fig2_53_VOS_MSD.cir ****
.END

**** 06/11/13 11:10:50 ******* PSpice 16.3.0 (June 2009) ****** ID# 0 ********

 ** Profile: "SCHEMATIC1-_Fig2_53_VOS_MSD"  [ C:\Users\HomePC\Documents\Spring 2013\PSpice_CMOSedu\MSD\Ch2_MSD_Pspice\_Fig2_53_VOS_MS


 ****     Voltage Controlled Switch MODEL PARAMETERS


******************************************************************************




               X_U12_S1._U12_S1                X_U2_S1._U2_S1  X_U3_S1._U3_S1  
         RON    1                               1               1            
        ROFF    1.000000E+06                    1.000000E+06    1.000000E+06 
         VON     .5                              .5              .5          
        VOFF    0                               0               0            


               X_U13_S1._U13_S1                X_U5_S1._U5_S1  X_U8_S1._U8_S1  
         RON    1                               1               1            
        ROFF    1.000000E+06                    1.000000E+06    1.000000E+06 
         VON     .5                              .5              .5          
        VOFF    0                               0               0            


               X_U10_S1._U10_S1 
         RON    1            
        ROFF    1.000000E+06 
         VON     .5          
        VOFF    0            



          JOB CONCLUDED

**** 06/11/13 11:10:50 ******* PSpice 16.3.0 (June 2009) ****** ID# 0 ********

 ** Profile: "SCHEMATIC1-_Fig2_53_VOS_MSD"  [ C:\Users\HomePC\Documents\Spring 2013\PSpice_CMOSedu\MSD\Ch2_MSD_Pspice\_Fig2_53_VOS_MS


 ****     JOB STATISTICS SUMMARY


******************************************************************************



  Total job time (using Solver 1)   =        3.99
