
**** 07/02/13 16:32:12 ***** PSpice 16.6.0 (October 2012) ***** ID# 0 ********

 ** Profile: "Fig10_20_symbol-tran"  [ C:\Users\jbaker\Desktop\Chap10_PSpice\Fig10_20_symbol\Fig10_20_symbol-pspicefiles\Fig10_20_sym


 ****     CIRCUIT DESCRIPTION


******************************************************************************




** Creating circuit file "tran.cir" 
** WARNING: THIS AUTOMATICALLY GENERATED FILE MAY BE OVERWRITTEN BY SUBSEQUENT SIMULATIONS

*Libraries: 
* Profile Libraries :
* Local Libraries :
.LIB "../../../fig10_20_symbol-pspicefiles/fig10_20_symbol.lib" 
* From [PSPICE NETLIST] section of C:\SPB_Data\cdssetup\OrCAD_PSpice/16.6.0/PSpice.ini file:
.lib "nom.lib" 

*Analysis directives: 
.TRAN  0 2.5n 0 
.OPTIONS ADVCONV
.PROBE64 V(alias(*)) I(alias(*)) W(alias(*)) D(alias(*)) NOISE(alias(*)) 
.INC "..\Fig10_20_symbol.net" 



**** INCLUDING Fig10_20_symbol.net ****
* source FIG10_20_SYMBOL
M_U1_M4         VOUT 0 VIN VDD P_50n  
+ L=50n  
+ W=1u         
M_U1_M3         VIN VDD VOUT 0 N_50n  
+ L=50n  
+ W=500n         
C_C1         VOUT 0  50f  TC=0,0 
V_Vin         VIN 0  
+PULSE 0 1 500p 0 0 1n 3n
V_VDD         VDD 0 DC 1  

**** RESUMING tran.cir ****
.END

INFO(ORPSIM-15423): Unable to find index file fig10_20_symbol.ind for library file fig10_20_symbol.lib.

INFO(ORPSIM-15422): Making new index file fig10_20_symbol.ind for library file fig10_20_symbol.lib.

Index has 2 entries from 1 file(s).

WARNING(ORPSIM-15623): model P_50n: Warning: toxe, toxp and dtox all given and toxe != toxp + dtox; dtox ignored

WARNING(ORPSIM-15499): Mosfet M_U1_M4, model P_50n: Toxp = 7e-010 is less than 10A

WARNING(ORPSIM-15532): Acde = 0.290715 is too small

WARNING(ORPSIM-15535): Mosfet M_U1_M4, model P_50n: Leff = 2.6e-008 may be too small

WARNING(ORPSIM-15536): Mosfet M_U1_M4, model P_50n: Leff for CV = 2.6e-008 may be too small

WARNING(ORPSIM-15623): model N_50n: Warning: toxe, toxp and dtox all given and toxe != toxp + dtox; dtox ignored

WARNING(ORPSIM-15499): Mosfet M_U1_M3, model N_50n: Toxp = 7e-010 is less than 10A

WARNING(ORPSIM-15532): Acde = 0.290715 is too small

WARNING(ORPSIM-15535): Mosfet M_U1_M3, model N_50n: Leff = 2.6e-008 may be too small

WARNING(ORPSIM-15536): Mosfet M_U1_M3, model N_50n: Leff for CV = 2.6e-008 may be too small

**** 07/02/13 16:32:12 ***** PSpice 16.6.0 (October 2012) ***** ID# 0 ********

 ** Profile: "Fig10_20_symbol-tran"  [ C:\Users\jbaker\Desktop\Chap10_PSpice\Fig10_20_symbol\Fig10_20_symbol-pspicefiles\Fig10_20_sym


 ****     MOSFET MODEL PARAMETERS


******************************************************************************




               P_50n           N_50n           
               PMOS            NMOS            
  T_Measured   27              27            
   T_Current   27              27            
       LEVEL    8               8            
           L  100.000000E-06  100.000000E-06 
           W  100.000000E-06  100.000000E-06 
         VTO    -.22             .22         
          KP  138.125800E-06  138.125800E-06 
       GAMMA    0               0            
      LAMBDA    0               0            
         RSH    3               3            
          IS    1.000000E-15    1.000000E-15 
          JS  100.000000E-06  100.000000E-06 
          PB    1               1            
        PBSW    1               1            
          CJ  500.000000E-06  500.000000E-06 
        CJSW  500.000000E-12  500.000000E-12 
        CGSO  743.000000E-12  623.800000E-12 
        CGDO  743.000000E-12  623.800000E-12 
        CGBO   25.600000E-12   25.600000E-12 
         TOX   15.000000E-09   15.000000E-09 
          XJ   20.000000E-09   20.000000E-09 
       UCRIT   10.000000E+03   10.000000E+03 
       DELTA     .014            .01         
      DIOMOD    1               1            
         VFB     .55            -.55         
          K1     .39             .35         
          K2     .05             .05         
        LETA    0               0            
        WETA    0               0            
          U0    9.500000E-03     .032        
       XPART    0               0            
        VTH0    -.22             .22         
          K3    0               0            
        DVT0    3.9             2.8          
        DVT1     .635            .52         
          UA    1.600000E-09  160.000000E-12 
          UB    8.000000E-18   11.000000E-18 
          UC  460.000000E-15  -30.000000E-12 
        VSAT   90.000000E+03  110.000000E+03 
        RDSW  250             150            
        VOFF    -.15            -.15         
     NFACTOR    2               1.2          
        CDSC  258.000000E-06  200.000000E-06 
        PCLM     .55             .18         
      PDIBL1     .03             .028        
      PDIBL2    5.500000E-03     .022        
       DROUT                     .45         
      PSCBE1  814.000000E+06  814.000000E+06 
      PSCBE2  958.000000E-09  100.000000E-09 
          A0    1.2             2            
          A1    0               0            
          A2    1               1            
         LDD    0               0            
        LITL   30.000000E-09   30.000000E-09 
         KT1    -.19            -.21         
         KT2    -.052           -.042        
         UA1   -1.000000E-09    1.000000E-09 
         UB1    2.000000E-18 -350.000000E-21 
         UC1    0               0            
          AT                   53.000000E+03 
        PVAG   10.000000E-21   10.000000E-21 
        KETA                     .04         
        ETA0     .15             .15         
        ETAB    0               0            
        DSUB     .7             2            
       NGATE  500.000000E+18  500.000000E+18 
      MOBMOD    0               0            
       CDSCD   61.000000E-09                 
         AGS   10.000000E-21   10.000000E-21 
       DVT1W    0               0            
       DVT2W    0               0            
        PRWG   32.200000E-09    0            
        PRWB   68.000000E-12   68.000000E-12 
     PDIBLCB   34.000000E-09   -5.000000E-03 
          B0  -10.000000E-21  -10.000000E-21 
      ALPHA0     .074            .074        
        CGSL   10.000000E-15  249.500000E-12 
        CGDL   10.000000E-15  249.500000E-12 
        LINT   12.000000E-09   12.000000E-09 
        WINT    5.000000E-09    5.000000E-09 
         DLC   12.000000E-09   12.000000E-09 
         DWC    5.000000E-09    5.000000E-09 
          CF  124.392700E-12  124.392700E-12 
        NOIA    9.900001E+18  100.000000E+18 
        NOIB    2.400000E+03   50.000000E+03 
        NOIC    1.400000E-12   -1.400000E-12 
         VTM     .025864         .025864     
    PARAMCHK    1               1            
     VERSION    4.1             4.1          
       PBSWG    1               1            
       MJSWG     .33             .33         
       CJSWG  500.000000E-12  500.000000E-12 
      ALPHA1    5.000000E-03    5.000000E-03 
        TOXM    1.400000E-09    1.400000E-09 
         TPB    5.000000E-03    5.000000E-03 
         TCJ    1.000000E-03    1.000000E-03 
       TPBSW    5.000000E-03    5.000000E-03 
       TCJSW    1.000000E-03    1.000000E-03 
      TPBSWG    5.000000E-03    5.000000E-03 
      TCJSWG    1.000000E-03    1.000000E-03 
        NOFF     .9              .9          
      VOFFCV     .02             .02         
         LLC    0               0            
         LWC    0               0            
        LWLC    0               0            
         WLC    0               0            
         WWC    0               0            
        WWLC    0               0            
BSIM4oxideTrapDensityC    8.750000E+09    8.750000E+09 
    rbodyMod    1               1            
    rgateMod    1               1            
      igcMod    1               1            
      igbMod    1               1            
        toxe    1.400000E-09    1.400000E-09 
        toxp  700.000000E-12  700.000000E-12 
        ndep    2.800000E+18    2.800000E+18 
       dvtp0    5.000000E-09  100.000000E-09 
          eu    1               1.67         
       dvtp1     .05             .05         
        lpe0   57.500000E-09   57.500000E-09 
        lpeb  230.000000E-12  230.000000E-12 
        minv     .05             .05         
         rsw  160             150            
         rdw  160             150            
      fprout     .2              .2          
       pdits     .2              .2          
      pditsd     .23             .23         
      pditsl    2.300000E+06    2.300000E+06 
       agidl  200.000000E-06  200.000000E-06 
       bgidl    2.100000E+09    2.100000E+09 
       cgidl  200.000000E-06  200.000000E-06 
        aigc     .69             .017        
        bigc    1.200000E-03    2.800000E-03 
        cigc  800.000000E-06    2.000000E-03 
       aigsd    8.700000E-03     .017        
       bigsd    1.200000E-03    2.800000E-03 
       cigsd  800.000000E-06    2.000000E-03 
     aigbacc     .012            .012        
     bigbacc    2.800000E-03    2.800000E-03 
     cigbacc    2.000000E-03    2.000000E-03 
     aigbinv     .014            .014        
     bigbinv    4.000000E-03    4.000000E-03 
     cigbinv    4.000000E-03    4.000000E-03 
      xrcrg2    5               5            
      toxref    1.400000E-09    1.400000E-09 
    ijthdfwd     .01             .01         
    ijthsfwd     .01             .01         
    ijthdrev    1.000000E-03    1.000000E-03 
    ijthsrev    1.000000E-03    1.000000E-03 
       gbmin  100.000000E-12  100.000000E-12 
        rbdb   15              15            
        rbsb   15              15            
        rbpb    5               5            
        rbps   15              15            
        rbpd   15              15            
     ckappas     .5              .02         
     ckappad     .5              .02         
       dlcig   12.000000E-09   12.000000E-09 
         dwj    0               0            
        rshg     .4              .4          
      CJSWGD  500.000000E-12  500.000000E-12 
      PBSWGD    1               1            
      MJSWGD     .33             .33         
      CJSWGS  500.000000E-12  500.000000E-12 
      PBSWGS    1               1            
      MJSWGS     .33             .33         
        JSWS   10.000000E-12   10.000000E-12 
       JSWGS  100.000000E-12  100.000000E-12 
        JSWD   10.000000E-12   10.000000E-12 
       JSWGD  100.000000E-12  100.000000E-12 
        coxe     .024665         .024665     
        coxp     .049331         .049331     
BSIM4factor1   64.807410E-06   64.807410E-06 


WARNING(ORPSIM-15623): model P_50n: Warning: toxe, toxp and dtox all given and toxe != toxp + dtox; dtox ignored

WARNING(ORPSIM-15499): Mosfet M_U1_M4, model P_50n: Toxp = 7e-010 is less than 10A

WARNING(ORPSIM-15532): Acde = 0.290715 is too small

WARNING(ORPSIM-15535): Mosfet M_U1_M4, model P_50n: Leff = 2.6e-008 may be too small

WARNING(ORPSIM-15536): Mosfet M_U1_M4, model P_50n: Leff for CV = 2.6e-008 may be too small

WARNING(ORPSIM-15623): model N_50n: Warning: toxe, toxp and dtox all given and toxe != toxp + dtox; dtox ignored

WARNING(ORPSIM-15499): Mosfet M_U1_M3, model N_50n: Toxp = 7e-010 is less than 10A

WARNING(ORPSIM-15532): Acde = 0.290715 is too small

WARNING(ORPSIM-15535): Mosfet M_U1_M3, model N_50n: Leff = 2.6e-008 may be too small

WARNING(ORPSIM-15536): Mosfet M_U1_M3, model N_50n: Leff for CV = 2.6e-008 may be too small

**** 07/02/13 16:32:12 ***** PSpice 16.6.0 (October 2012) ***** ID# 0 ********

 ** Profile: "Fig10_20_symbol-tran"  [ C:\Users\jbaker\Desktop\Chap10_PSpice\Fig10_20_symbol\Fig10_20_symbol-pspicefiles\Fig10_20_sym


 ****     INITIAL TRANSIENT SOLUTION       TEMPERATURE =   27.000 DEG C


******************************************************************************



 NODE   VOLTAGE     NODE   VOLTAGE     NODE   VOLTAGE     NODE   VOLTAGE


(  VDD)    1.0000  (  VIN)    0.0000  ( VOUT) 1.099E-06  




    VOLTAGE SOURCE CURRENTS
    NAME         CURRENT

    V_Vin        1.323E-09
    V_VDD       -5.333E-01

    TOTAL POWER DISSIPATION   5.33E-01  WATTS


ERROR(ORPSIM-15138): Convergence problem in transient analysis at Time =  5.345E-12.
         Time step =  2.016E-21, minimum allowable step size =  2.500E-21

  These voltages failed to converge:

    V(VOUT)                   =   -90.13mV  \   -82.56mV

  These supply currents failed to converge:

    I(V_Vin)                  =   -24.69KA  \   -76.72mA
    I(V_VDD)                  =    7.736KA  \  -518.57mA

  These devices failed to converge:
    M_U1_M4   M_U1_M3   

ERROR(ORPSIM-15659): Discontinuing simulation due to convergence problem



  Last node voltages tried were:

 NODE   VOLTAGE     NODE   VOLTAGE     NODE   VOLTAGE     NODE   VOLTAGE


(  VDD)    1.0000  (  VIN)    0.0000  ( VOUT)    -.0901  


**** Interrupt ****
