
**** 06/29/13 11:00:02 ****** PSpice Lite (October 2012) ****** ID# 10813 ****

 ** Profile: "Fig6_19_NMOS_ID_VGS-dc"  [ C:\Users\jbaker\Desktop\PSpice_CMOSedu\Chap6_PSpice\Fig6_19_NMOS_ID_VGS\Fig6_19_nmos_id_vgs-


 ****     CIRCUIT DESCRIPTION


******************************************************************************




** Creating circuit file "dc.cir" 
** WARNING: THIS AUTOMATICALLY GENERATED FILE MAY BE OVERWRITTEN BY SUBSEQUENT SIMULATIONS

*Libraries: 
* Profile Libraries :
* Local Libraries :
.LIB "../../../Fig6_19_nmos_id_vgs-pspicefiles/Fig6_19_nmos_id_vgs.lib" 
* From [PSPICE NETLIST] section of C:\SPB_Data\cdssetup\OrCAD_PSpice/16.6.0/PSpice.ini file:
.lib "nomd.lib" 

*Analysis directives: 
.DC LIN V_VGS 0 500m 0.01 
+ LIN V_VSB 0 1 250m 
.OPTIONS ADVCONV
.PROBE64 V(alias(*)) I(alias(*)) W(alias(*)) D(alias(*)) NOISE(alias(*)) 
.INC "..\Fig6_19_NMOS_ID_VGS.net" 



**** INCLUDING Fig6_19_NMOS_ID_VGS.net ****
* source FIG6_19_NMOS_ID_VGS
M_M1         N02400 N02432 0 N03240 N_50n  
+ L=50n  
+ W=500n         
V_VGS         N02432 0 DC 0  
V_VDS         N02400 0 DC 1  
V_VSB         0 N03240 DC 0  

**** RESUMING dc.cir ****
.END

WARNING(ORPSIM-15223): Library file C:\Users\jbaker\Desktop\PSpice_CMOSedu\Chap6_PSpice\Fig6_19_NMOS_ID_VGS\Fig6_19_nmos_id_vgs-pspicefiles\fig6_19_nmos_id_vgs.lib has changed since index file Fig6_19_nmos_id_vgs.ind was created.

WARNING(ORPSIM-15227): The timestamp changed from Fri Jun 14 16:01:15 2013 to Fri Jun 14 16:01:14 2013.

INFO(ORPSIM-15422): Making new index file Fig6_19_nmos_id_vgs.ind for library file Fig6_19_nmos_id_vgs.lib.

Index has 1 entries from 1 file(s).

WARNING(ORPSIM-15623): model N_50n: Warning: toxe, toxp and dtox all given and toxe != toxp + dtox; dtox ignored

WARNING(ORPSIM-15499): Mosfet M_M1, model N_50n: Toxp = 7e-010 is less than 10A

WARNING(ORPSIM-15532): Acde = 0.290715 is too small

WARNING(ORPSIM-15535): Mosfet M_M1, model N_50n: Leff = 2.6e-008 may be too small

WARNING(ORPSIM-15536): Mosfet M_M1, model N_50n: Leff for CV = 2.6e-008 may be too small

**** 06/29/13 11:00:02 ****** PSpice Lite (October 2012) ****** ID# 10813 ****

 ** Profile: "Fig6_19_NMOS_ID_VGS-dc"  [ C:\Users\jbaker\Desktop\PSpice_CMOSedu\Chap6_PSpice\Fig6_19_NMOS_ID_VGS\Fig6_19_nmos_id_vgs-


 ****     MOSFET MODEL PARAMETERS


******************************************************************************




               N_50n           
               NMOS            
  T_Measured   27            
   T_Current   27            
       LEVEL    8            
           L  100.000000E-06 
           W  100.000000E-06 
         VTO     .22         
          KP  138.125800E-06 
       GAMMA    0            
      LAMBDA    0            
         RSH    3            
          IS    1.000000E-15 
          JS  100.000000E-06 
          PB    1            
        PBSW    1            
          CJ  500.000000E-06 
        CJSW  500.000000E-12 
        CGSO  623.800000E-12 
        CGDO  623.800000E-12 
        CGBO   25.600000E-12 
         TOX   15.000000E-09 
          XJ   20.000000E-09 
       UCRIT   10.000000E+03 
       DELTA     .01         
      DIOMOD    1            
         VFB    -.55         
          K1     .35         
          K2     .05         
        LETA    0            
        WETA    0            
          U0     .032        
       XPART    0            
        VTH0     .22         
          K3    0            
        DVT0    2.8          
        DVT1     .52         
          UA  160.000000E-12 
          UB   11.000000E-18 
          UC  -30.000000E-12 
        VSAT  110.000000E+03 
        RDSW  150            
        VOFF    -.15         
     NFACTOR    1.2          
        CDSC  200.000000E-06 
        PCLM     .18         
      PDIBL1     .028        
      PDIBL2     .022        
       DROUT     .45         
      PSCBE1  814.000000E+06 
      PSCBE2  100.000000E-09 
          A0    2            
          A1    0            
          A2    1            
         LDD    0            
        LITL   30.000000E-09 
         KT1    -.21         
         KT2    -.042        
         UA1    1.000000E-09 
         UB1 -350.000000E-21 
         UC1    0            
          AT   53.000000E+03 
        PVAG   10.000000E-21 
        KETA     .04         
        ETA0     .15         
        ETAB    0            
        DSUB    2            
       NGATE  500.000000E+18 
      MOBMOD    0            
         AGS   10.000000E-21 
       DVT1W    0            
       DVT2W    0            
        PRWG    0            
        PRWB   68.000000E-12 
     PDIBLCB   -5.000000E-03 
          B0  -10.000000E-21 
      ALPHA0     .074        
        CGSL  249.500000E-12 
        CGDL  249.500000E-12 
        LINT   12.000000E-09 
        WINT    5.000000E-09 
         DLC   12.000000E-09 
         DWC    5.000000E-09 
          CF  124.392700E-12 
        NOIA  100.000000E+18 
        NOIB   50.000000E+03 
        NOIC   -1.400000E-12 
         VTM     .025864     
    PARAMCHK    1            
     VERSION    4.1          
       PBSWG    1            
       MJSWG     .33         
       CJSWG  500.000000E-12 
      ALPHA1    5.000000E-03 
        TOXM    1.400000E-09 
         TPB    5.000000E-03 
         TCJ    1.000000E-03 
       TPBSW    5.000000E-03 
       TCJSW    1.000000E-03 
      TPBSWG    5.000000E-03 
      TCJSWG    1.000000E-03 
        NOFF     .9          
      VOFFCV     .02         
         LLC    0            
         LWC    0            
        LWLC    0            
         WLC    0            
         WWC    0            
        WWLC    0            
BSIM4oxideTrapDensityC    8.750000E+09 
    rbodyMod    1            
    rgateMod    1            
      igcMod    1            
      igbMod    1            
        toxe    1.400000E-09 
        toxp  700.000000E-12 
        ndep    2.800000E+18 
       dvtp0  100.000000E-09 
          eu    1.67         
       dvtp1     .05         
        lpe0   57.500000E-09 
        lpeb  230.000000E-12 
        minv     .05         
         rsw  150            
         rdw  150            
      fprout     .2          
       pdits     .2          
      pditsd     .23         
      pditsl    2.300000E+06 
       agidl  200.000000E-06 
       bgidl    2.100000E+09 
       cgidl  200.000000E-06 
        aigc     .017        
        bigc    2.800000E-03 
        cigc    2.000000E-03 
       aigsd     .017        
       bigsd    2.800000E-03 
       cigsd    2.000000E-03 
     aigbacc     .012        
     bigbacc    2.800000E-03 
     cigbacc    2.000000E-03 
     aigbinv     .014        
     bigbinv    4.000000E-03 
     cigbinv    4.000000E-03 
      xrcrg2    5            
      toxref    1.400000E-09 
    ijthdfwd     .01         
    ijthsfwd     .01         
    ijthdrev    1.000000E-03 
    ijthsrev    1.000000E-03 
       gbmin  100.000000E-12 
        rbdb   15            
        rbsb   15            
        rbpb    5            
        rbps   15            
        rbpd   15            
     ckappas     .02         
     ckappad     .02         
       dlcig   12.000000E-09 
         dwj    0            
        rshg     .4          
      CJSWGD  500.000000E-12 
      PBSWGD    1            
      MJSWGD     .33         
      CJSWGS  500.000000E-12 
      PBSWGS    1            
      MJSWGS     .33         
        JSWS   10.000000E-12 
       JSWGS  100.000000E-12 
        JSWD   10.000000E-12 
       JSWGD  100.000000E-12 
        coxe     .024665     
        coxp     .049331     
BSIM4factor1   64.807410E-06 


WARNING(ORPSIM-15623): model N_50n: Warning: toxe, toxp and dtox all given and toxe != toxp + dtox; dtox ignored

WARNING(ORPSIM-15499): Mosfet M_M1, model N_50n: Toxp = 7e-010 is less than 10A

WARNING(ORPSIM-15532): Acde = 0.290715 is too small

WARNING(ORPSIM-15535): Mosfet M_M1, model N_50n: Leff = 2.6e-008 may be too small

WARNING(ORPSIM-15536): Mosfet M_M1, model N_50n: Leff for CV = 2.6e-008 may be too small

WARNING(ORPSIM-15623): model N_50n: Warning: toxe, toxp and dtox all given and toxe != toxp + dtox; dtox ignored

WARNING(ORPSIM-15499): Mosfet M_M1, model N_50n: Toxp = 7e-010 is less than 10A

WARNING(ORPSIM-15532): Acde = 0.290715 is too small

WARNING(ORPSIM-15535): Mosfet M_M1, model N_50n: Leff = 2.6e-008 may be too small

WARNING(ORPSIM-15536): Mosfet M_M1, model N_50n: Leff for CV = 2.6e-008 may be too small

ERROR(ORPSIM-15675): Model N_50n contains bsim4 parameters. You need the licensed copy of software to simulate bsim4


ABORTING SIMULATION
**** 06/29/13 11:00:02 ****** PSpice Lite (October 2012) ****** ID# 10813 ****

 ** Profile: "Fig6_19_NMOS_ID_VGS-dc"  [ C:\Users\jbaker\Desktop\PSpice_CMOSedu\Chap6_PSpice\Fig6_19_NMOS_ID_VGS\Fig6_19_nmos_id_vgs-


 ****     JOB STATISTICS SUMMARY


******************************************************************************



Node counts:
  Top level (NUNODS)                =           4
  External (NCNODS)                 =           4
  Total (NUMNOD)                    =           4

Total device count (NUMEL)          =           4
  MosFETs (M)                       =           1
  Voltage Sources (V)               =           3

Number of subcircuits (X)           =           0

Matrix statistics:
  Matrix size (NSTOP)               =           7
  Initial no. elements (NTTAR)      =          15
  No. elements w/ fillin (NTTBR)    =          15
  No. fillins (IFILL)               =           0
  No. overflows (NTTOV)             =           0
  No. LU operations (IOPS)          =           0
  Percent sparsity (PERSPA)         =      69.388

Analysis statistics:
  No. total time points (NUMTTP)    =           0
  No. rejected time points (NUMRTP) =           0
  No. iterations (NUMNIT)           =           0

Load Threads                        =           1

Runtime statistics:                       Seconds      Iterations
  Matrix load                       =        0.00
  Matrix solution                   =        0.00               1
  Readin                            =        0.00
  General setup                     =         .23
  Setup                             =        0.00
  DC sweep                          =        0.00               0
  Bias point                        =        0.00               0
  AC and noise                      =        0.00               0
  Total transient analysis          =        0.00
  Output                            =        0.00
  Overhead                          =        0.00
  Total job time (using Solver 1)   =         .23
