
**** 07/03/13 17:17:24 ***** PSpice 16.6.0 (October 2012) ***** ID# 0 ********

 ** Profile: "_Fig3_36_MSD-_Fig3_36_MSD"  [ C:\Users\jbaker\Desktop\Ch3_MSD_PSpice\_fig3_36_msd-pspicefiles\_fig3_36_msd\_fig3_36_msd


 ****     CIRCUIT DESCRIPTION


******************************************************************************




** Creating circuit file "_Fig3_36_MSD.cir" 
** WARNING: THIS AUTOMATICALLY GENERATED FILE MAY BE OVERWRITTEN BY SUBSEQUENT SIMULATIONS

*Libraries: 
* Profile Libraries :
* Local Libraries :
* From [PSPICE NETLIST] section of C:\SPB_Data\cdssetup\OrCAD_PSpice/16.6.0/PSpice.ini file:
.lib "nom.lib" 

*Analysis directives: 
.AC DEC 100 10k 100meg
.OPTIONS ADVCONV
.PROBE64 V(alias(*)) I(alias(*)) W(alias(*)) D(alias(*)) NOISE(alias(*)) 
.INC "..\_Fig3_36_MSD.net" 



**** INCLUDING _Fig3_36_MSD.net ****
* source _FIG3_36_MSD
R_R1         VIN N00101  1.414k TC=0,0 
L_L1         N00101 VOUT  100uH  
C_C1         VOUT 0  100p   
V_V1         VIN 0 DC 0Vdc AC 1Vac 

**** RESUMING _Fig3_36_MSD.cir ****
.END

**** 07/03/13 17:17:24 ***** PSpice 16.6.0 (October 2012) ***** ID# 0 ********

 ** Profile: "_Fig3_36_MSD-_Fig3_36_MSD"  [ C:\Users\jbaker\Desktop\Ch3_MSD_PSpice\_fig3_36_msd-pspicefiles\_fig3_36_msd\_fig3_36_msd


 ****     SMALL SIGNAL BIAS SOLUTION       TEMPERATURE =   27.000 DEG C


******************************************************************************



 NODE   VOLTAGE     NODE   VOLTAGE     NODE   VOLTAGE     NODE   VOLTAGE


(  VIN)    0.0000  ( VOUT)    0.0000  (N00101)    0.0000 




    VOLTAGE SOURCE CURRENTS
    NAME         CURRENT

    V_V1         0.000E+00

    TOTAL POWER DISSIPATION   0.00E+00  WATTS



          JOB CONCLUDED

**** 07/03/13 17:17:24 ***** PSpice 16.6.0 (October 2012) ***** ID# 0 ********

 ** Profile: "_Fig3_36_MSD-_Fig3_36_MSD"  [ C:\Users\jbaker\Desktop\Ch3_MSD_PSpice\_fig3_36_msd-pspicefiles\_fig3_36_msd\_fig3_36_msd


 ****     JOB STATISTICS SUMMARY


******************************************************************************



  Total job time (using Solver 1)   =         .02
