
**** 06/29/13 10:57:24 ****** PSpice Lite (October 2012) ****** ID# 10813 ****

 ** Profile: "Fig6_12-dc"  [ C:\Users\jbaker\Desktop\PSpice_CMOSedu\Chap6_PSpice\Fig6_12\Fig6_12-pspicefiles\Fig6_12\dc.sim ] 


 ****     CIRCUIT DESCRIPTION


******************************************************************************




** Creating circuit file "dc.cir" 
** WARNING: THIS AUTOMATICALLY GENERATED FILE MAY BE OVERWRITTEN BY SUBSEQUENT SIMULATIONS

*Libraries: 
* Profile Libraries :
* Local Libraries :
.LIB "../../../Fig6_12-pspicefiles/Fig6_12.lib" 
* From [PSPICE NETLIST] section of C:\SPB_Data\cdssetup\OrCAD_PSpice/16.6.0/PSpice.ini file:
.lib "nomd.lib" 

*Analysis directives: 
.DC LIN V_VSD 0 5 1m 
+ LIN V_VSG 0 5 1 
.OPTIONS ADVCONV
.PROBE64 V(alias(*)) I(alias(*)) W(alias(*)) D(alias(*)) NOISE(alias(*)) 
.INC "..\Fig6_12.net" 



**** INCLUDING Fig6_12.net ****
* source FIG6_12
M_M1         N03176 N03116 0 0 P_1u  
+ L=1u  
+ W=10u         
V_VSD         0 N03176 DC 0  
V_VSG         0 N03116 DC 0  

**** RESUMING dc.cir ****
.END

**** 06/29/13 10:57:24 ****** PSpice Lite (October 2012) ****** ID# 10813 ****

 ** Profile: "Fig6_12-dc"  [ C:\Users\jbaker\Desktop\PSpice_CMOSedu\Chap6_PSpice\Fig6_12\Fig6_12-pspicefiles\Fig6_12\dc.sim ] 


 ****     MOSFET MODEL PARAMETERS


******************************************************************************




               P_1u            
               PMOS            
       LEVEL    3            
         TPG   -1            
           L  100.000000E-06 
           W  100.000000E-06 
          LD  100.000000E-09 
         VTO    -.9          
          KP   40.000000E-06 
       GAMMA     .6          
         PHI     .7          
      LAMBDA    0            
          IS   10.000000E-15 
          JS    0            
          PB    1            
        PBSW    1            
          CJ  400.000000E-06 
        CJSW  300.000000E-12 
        MJSW     .5          
        CGSO  200.000000E-12 
        CGDO  200.000000E-12 
        CGBO  100.000000E-12 
        NSUB  100.000000E+15 
         NFS    1.000000E+12 
         TOX   20.000000E-09 
          XJ  500.000000E-09 
          UO  250            
       UCRIT   10.000000E+03 
        VMAX   50.000000E+03 
       DELTA     .1          
       THETA     .1          
         ETA    0            
       KAPPA    1            
      DIOMOD    1            
         VFB    0            
        LETA    0            
        WETA    0            
          U0    0            
        TEMP    0            
         VDD    5            
       XPART    0            



          JOB CONCLUDED

**** 06/29/13 10:57:24 ****** PSpice Lite (October 2012) ****** ID# 10813 ****

 ** Profile: "Fig6_12-dc"  [ C:\Users\jbaker\Desktop\PSpice_CMOSedu\Chap6_PSpice\Fig6_12\Fig6_12-pspicefiles\Fig6_12\dc.sim ] 


 ****     JOB STATISTICS SUMMARY


******************************************************************************



  Total job time (using Solver 1)   =         .30
