
**** 07/03/13 16:59:30 ***** PSpice 16.6.0 (October 2012) ***** ID# 0 ********

 ** Profile: "_Fig1_25_K_is_3_AC_MSD-_Fig1_25_K_is_3_AC_MSD"  [ C:\Users\jbaker\Desktop\Ch1_MSD_PSpice\_Fig1_25_K_is_3_AC_MSD\_fig1_2


 ****     CIRCUIT DESCRIPTION


******************************************************************************




** Creating circuit file "_Fig1_25_K_is_3_AC_MSD.cir" 
** WARNING: THIS AUTOMATICALLY GENERATED FILE MAY BE OVERWRITTEN BY SUBSEQUENT SIMULATIONS

*Libraries: 
* Profile Libraries :
* Local Libraries :
* From [PSPICE NETLIST] section of C:\SPB_Data\cdssetup\OrCAD_PSpice/16.6.0/PSpice.ini file:
.lib "nom.lib" 

*Analysis directives: 
.AC LIN 1000 1k 100MEG
.OPTIONS ADVCONV
.PROBE64 V(alias(*)) I(alias(*)) W(alias(*)) D(alias(*)) NOISE(alias(*)) 
.INC "..\_Fig1_25_K_is_3_AC_MSD.net" 



**** INCLUDING _Fig1_25_K_is_3_AC_MSD.net ****
* source _FIG1_25_K_IS_3_AC_MSD
V_V1         VIN 0 DC 0Vdc AC 1Vac 
T_T1         VIN 0 N01364 0 Z0=50 TD=30ns  
R_R1         0 N01364  50 TC=0,0 
E_E1         VOUT 0 VIN N01364 1

**** RESUMING _Fig1_25_K_is_3_AC_MSD.cir ****
.END

**** 07/03/13 16:59:30 ***** PSpice 16.6.0 (October 2012) ***** ID# 0 ********

 ** Profile: "_Fig1_25_K_is_3_AC_MSD-_Fig1_25_K_is_3_AC_MSD"  [ C:\Users\jbaker\Desktop\Ch1_MSD_PSpice\_Fig1_25_K_is_3_AC_MSD\_fig1_2


 ****     SMALL SIGNAL BIAS SOLUTION       TEMPERATURE =   27.000 DEG C


******************************************************************************



 NODE   VOLTAGE     NODE   VOLTAGE     NODE   VOLTAGE     NODE   VOLTAGE


(  VIN)    0.0000  ( VOUT)    0.0000  (N01364)    0.0000 




    VOLTAGE SOURCE CURRENTS
    NAME         CURRENT

    V_V1         0.000E+00

    TOTAL POWER DISSIPATION   0.00E+00  WATTS



          JOB CONCLUDED

**** 07/03/13 16:59:30 ***** PSpice 16.6.0 (October 2012) ***** ID# 0 ********

 ** Profile: "_Fig1_25_K_is_3_AC_MSD-_Fig1_25_K_is_3_AC_MSD"  [ C:\Users\jbaker\Desktop\Ch1_MSD_PSpice\_Fig1_25_K_is_3_AC_MSD\_fig1_2


 ****     JOB STATISTICS SUMMARY


******************************************************************************



  Total job time (using Solver 1)   =         .02
