
**** 06/12/13 19:51:41 ******* PSpice 16.3.0 (June 2009) ****** ID# 0 ********

 ** Profile: "SCHEMATIC1-_Fig3_41_MSD"  [ C:\Users\HomePC\Documents\Spring 2013\PSpice_CMOSedu\MSD\Ch3_MSD_Pspice\_Fig3_41_MSD\_fig3_


 ****     CIRCUIT DESCRIPTION


******************************************************************************




** Creating circuit file "_Fig3_41_MSD.cir" 
** WARNING: THIS AUTOMATICALLY GENERATED FILE MAY BE OVERWRITTEN BY SUBSEQUENT SIMULATIONS

*Libraries: 
* Profile Libraries :
* Local Libraries :
* From [PSPICE NETLIST] section of C:\Cadence\SPB_16.3\tools\PSpice\PSpice.ini file:
.lib "nom.lib" 

*Analysis directives: 
.AC DEC 100 1k 100meg
.PROBE V(alias(*)) I(alias(*)) W(alias(*)) D(alias(*)) NOISE(alias(*)) 
.INC "..\SCHEMATIC1.net" 



**** INCLUDING SCHEMATIC1.net ****
* source _FIG3_41_MSD
V_V1         N04778 0 DC 0Vdc AC 1Vac 
L_L1         VOUT 0  100u  
R_R1         N04778 VOUT  20k TC=0,0 
C_C1         VOUT 0  100p   

**** RESUMING _Fig3_41_MSD.cir ****
.END

**** 06/12/13 19:51:41 ******* PSpice 16.3.0 (June 2009) ****** ID# 0 ********

 ** Profile: "SCHEMATIC1-_Fig3_41_MSD"  [ C:\Users\HomePC\Documents\Spring 2013\PSpice_CMOSedu\MSD\Ch3_MSD_Pspice\_Fig3_41_MSD\_fig3_


 ****     SMALL SIGNAL BIAS SOLUTION       TEMPERATURE =   27.000 DEG C


******************************************************************************



 NODE   VOLTAGE     NODE   VOLTAGE     NODE   VOLTAGE     NODE   VOLTAGE


( VOUT)    0.0000  (N04778)    0.0000 




    VOLTAGE SOURCE CURRENTS
    NAME         CURRENT

    V_V1         0.000E+00

    TOTAL POWER DISSIPATION   0.00E+00  WATTS



          JOB CONCLUDED

**** 06/12/13 19:51:41 ******* PSpice 16.3.0 (June 2009) ****** ID# 0 ********

 ** Profile: "SCHEMATIC1-_Fig3_41_MSD"  [ C:\Users\HomePC\Documents\Spring 2013\PSpice_CMOSedu\MSD\Ch3_MSD_Pspice\_Fig3_41_MSD\_fig3_


 ****     JOB STATISTICS SUMMARY


******************************************************************************



  Total job time (using Solver 1)   =         .03
