
**** 07/03/13 16:57:29 ***** PSpice 16.6.0 (October 2012) ***** ID# 0 ********

 ** Profile: "_Fig1_12_MSD-_Fig1_12_MSD"  [ C:\Users\jbaker\Desktop\Ch1_MSD_PSpice\_Fig1_12_MSD\_fig1_12_msd-pspicefiles\_fig1_12_msd


 ****     CIRCUIT DESCRIPTION


******************************************************************************




** Creating circuit file "_Fig1_12_MSD.cir" 
** WARNING: THIS AUTOMATICALLY GENERATED FILE MAY BE OVERWRITTEN BY SUBSEQUENT SIMULATIONS

*Libraries: 
* Profile Libraries :
* Local Libraries :
* From [PSPICE NETLIST] section of C:\SPB_Data\cdssetup\OrCAD_PSpice/16.6.0/PSpice.ini file:
.lib "nom.lib" 

*Analysis directives: 
.AC LIN 1000 10k 500Meg
.OPTIONS ADVCONV
.PROBE64 V(alias(*)) I(alias(*)) W(alias(*)) D(alias(*)) NOISE(alias(*)) 
.INC "..\_Fig1_12_MSD.net" 



**** INCLUDING _Fig1_12_MSD.net ****
* source _FIG1_12_MSD
T_T1         VIN 0 N00162 0 Z0=50 TD=5ns  
R_R1         0 N00162  50 TC=0,0 
R_R2         VOUT N00162  5k TC=0,0 
R_R3         VIN VOUT  5k TC=0,0 
V_V1         VIN 0 DC 0Vdc AC 1Vac 

**** RESUMING _Fig1_12_MSD.cir ****
.END

**** 07/03/13 16:57:29 ***** PSpice 16.6.0 (October 2012) ***** ID# 0 ********

 ** Profile: "_Fig1_12_MSD-_Fig1_12_MSD"  [ C:\Users\jbaker\Desktop\Ch1_MSD_PSpice\_Fig1_12_MSD\_fig1_12_msd-pspicefiles\_fig1_12_msd


 ****     SMALL SIGNAL BIAS SOLUTION       TEMPERATURE =   27.000 DEG C


******************************************************************************



 NODE   VOLTAGE     NODE   VOLTAGE     NODE   VOLTAGE     NODE   VOLTAGE


(  VIN)    0.0000  ( VOUT)    0.0000  (N00162)    0.0000 




    VOLTAGE SOURCE CURRENTS
    NAME         CURRENT

    V_V1         0.000E+00

    TOTAL POWER DISSIPATION   0.00E+00  WATTS



          JOB CONCLUDED

**** 07/03/13 16:57:29 ***** PSpice 16.6.0 (October 2012) ***** ID# 0 ********

 ** Profile: "_Fig1_12_MSD-_Fig1_12_MSD"  [ C:\Users\jbaker\Desktop\Ch1_MSD_PSpice\_Fig1_12_MSD\_fig1_12_msd-pspicefiles\_fig1_12_msd


 ****     JOB STATISTICS SUMMARY


******************************************************************************



  Total job time (using Solver 1)   =         .02
