
**** 07/05/13 11:59:21 ***** PSpice 16.6.0 (October 2012) ***** ID# 0 ********

 ** Profile: "_Fig4_22_K_is_12_fs_6_AC_MSD-_Fig4_22_K_is_12_fs_6_AC_MSD"  [ C:\Users\Christian\Desktop\MSD\Ch4_MSD_PSpice\_Fig4_22_K_


 ****     CIRCUIT DESCRIPTION


******************************************************************************




** Creating circuit file "_Fig4_22_K_is_12_fs_6_AC_MSD.cir" 
** WARNING: THIS AUTOMATICALLY GENERATED FILE MAY BE OVERWRITTEN BY SUBSEQUENT SIMULATIONS

*Libraries: 
* Profile Libraries :
* Local Libraries :
* From [PSPICE NETLIST] section of C:\SPB_Data\cdssetup\OrCAD_PSpice/16.6.0/PSpice.ini file:
.lib "nom.lib" 

*Analysis directives: 
.AC LIN 1000 1k 100MEG
.OPTIONS ADVCONV
.PROBE64 V(alias(*)) I(alias(*)) W(alias(*)) D(alias(*)) NOISE(alias(*)) 
.INC "..\_Fig4_22_K_is_12_fs_6_AC_MSD.net" 



**** INCLUDING _Fig4_22_K_is_12_fs_6_AC_MSD.net ****
* source _FIG4_22_K_IS_12_FS_3_AC_MSD
T_T4         N30634 0 VOUT 0 Z0=50 TD=10n  
R_R1         0 N30252  50 TC=0,0 
E_E4         N30600 0 0 N30634 1
E_E3         N30276 N30600 N30390 0 1
E_E1         N30282 0 VIN N30252 1
T_T1         VIN 0 N30252 0 Z0=50 TD=120n  
E_E2         VOUT 0 N30282 N30276 1
V_V1         VIN 0 DC 0Vdc AC 1Vac 
T_T3         N30270 0 VOUT 0 Z0=50 TD=10n  
T_T2         N30390 0 N30270 0 Z0=50 TD=10n  
R_R2         0 N30390  50 TC=0,0 
R_R3         0 N30634  50 TC=0,0 

**** RESUMING _Fig4_22_K_is_12_fs_6_AC_MSD.cir ****
.END

**** 07/05/13 11:59:21 ***** PSpice 16.6.0 (October 2012) ***** ID# 0 ********

 ** Profile: "_Fig4_22_K_is_12_fs_6_AC_MSD-_Fig4_22_K_is_12_fs_6_AC_MSD"  [ C:\Users\Christian\Desktop\MSD\Ch4_MSD_PSpice\_Fig4_22_K_


 ****     SMALL SIGNAL BIAS SOLUTION       TEMPERATURE =   27.000 DEG C


******************************************************************************



 NODE   VOLTAGE     NODE   VOLTAGE     NODE   VOLTAGE     NODE   VOLTAGE


(  VIN)    0.0000  ( VOUT)    0.0000  (N30252)    0.0000 (N30270)    0.0000     

(N30276)    0.0000 (N30282)    0.0000 (N30390)    0.0000 (N30600)    0.0000     

(N30634)    0.0000 




    VOLTAGE SOURCE CURRENTS
    NAME         CURRENT

    V_V1         0.000E+00

    TOTAL POWER DISSIPATION   0.00E+00  WATTS



          JOB CONCLUDED

**** 07/05/13 11:59:21 ***** PSpice 16.6.0 (October 2012) ***** ID# 0 ********

 ** Profile: "_Fig4_22_K_is_12_fs_6_AC_MSD-_Fig4_22_K_is_12_fs_6_AC_MSD"  [ C:\Users\Christian\Desktop\MSD\Ch4_MSD_PSpice\_Fig4_22_K_


 ****     JOB STATISTICS SUMMARY


******************************************************************************



  Total job time (using Solver 1)   =         .02
