
**** 07/03/13 17:19:35 ***** PSpice 16.6.0 (October 2012) ***** ID# 0 ********

 ** Profile: "_Fig3_41_MSD-_Fig3_41_MSD"  [ C:\Users\jbaker\Desktop\Ch3_MSD_PSpice\_fig3_41_msd-pspicefiles\_fig3_41_msd\_fig3_41_msd


 ****     CIRCUIT DESCRIPTION


******************************************************************************




** Creating circuit file "_Fig3_41_MSD.cir" 
** WARNING: THIS AUTOMATICALLY GENERATED FILE MAY BE OVERWRITTEN BY SUBSEQUENT SIMULATIONS

*Libraries: 
* Profile Libraries :
* Local Libraries :
* From [PSPICE NETLIST] section of C:\SPB_Data\cdssetup\OrCAD_PSpice/16.6.0/PSpice.ini file:
.lib "nom.lib" 

*Analysis directives: 
.AC DEC 100 1k 100meg
.OPTIONS ADVCONV
.PROBE64 V(alias(*)) I(alias(*)) W(alias(*)) D(alias(*)) NOISE(alias(*)) 
.INC "..\_Fig3_41_MSD.net" 



**** INCLUDING _Fig3_41_MSD.net ****
* source _FIG3_41_MSD
V_V1         N04778 0 DC 0Vdc AC 1Vac 
L_L1         VOUT 0  100u  
R_R1         N04778 VOUT  20k TC=0,0 
C_C1         VOUT 0  100p   

**** RESUMING _Fig3_41_MSD.cir ****
.END

**** 07/03/13 17:19:35 ***** PSpice 16.6.0 (October 2012) ***** ID# 0 ********

 ** Profile: "_Fig3_41_MSD-_Fig3_41_MSD"  [ C:\Users\jbaker\Desktop\Ch3_MSD_PSpice\_fig3_41_msd-pspicefiles\_fig3_41_msd\_fig3_41_msd


 ****     SMALL SIGNAL BIAS SOLUTION       TEMPERATURE =   27.000 DEG C


******************************************************************************



 NODE   VOLTAGE     NODE   VOLTAGE     NODE   VOLTAGE     NODE   VOLTAGE


( VOUT)    0.0000  (N04778)    0.0000 




    VOLTAGE SOURCE CURRENTS
    NAME         CURRENT

    V_V1         0.000E+00

    TOTAL POWER DISSIPATION   0.00E+00  WATTS



          JOB CONCLUDED

**** 07/03/13 17:19:35 ***** PSpice 16.6.0 (October 2012) ***** ID# 0 ********

 ** Profile: "_Fig3_41_MSD-_Fig3_41_MSD"  [ C:\Users\jbaker\Desktop\Ch3_MSD_PSpice\_fig3_41_msd-pspicefiles\_fig3_41_msd\_fig3_41_msd


 ****     JOB STATISTICS SUMMARY


******************************************************************************



  Total job time (using Solver 1)   =         .02
