
**** 07/03/13 17:15:45 ***** PSpice 16.6.0 (October 2012) ***** ID# 0 ********

 ** Profile: "_Fig3_28_MSD-_Fig3_28_MSD"  [ C:\Users\jbaker\Desktop\Ch3_MSD_PSpice\_fig3_28_msd-pspicefiles\_fig3_28_msd\_fig3_28_msd


 ****     CIRCUIT DESCRIPTION


******************************************************************************




** Creating circuit file "_Fig3_28_MSD.cir" 
** WARNING: THIS AUTOMATICALLY GENERATED FILE MAY BE OVERWRITTEN BY SUBSEQUENT SIMULATIONS

*Libraries: 
* Profile Libraries :
* Local Libraries :
* From [PSPICE NETLIST] section of C:\SPB_Data\cdssetup\OrCAD_PSpice/16.6.0/PSpice.ini file:
.lib "nom.lib" 

*Analysis directives: 
.TRAN  0 200MEG 100 SKIPBP 
.OPTIONS ADVCONV
.PROBE64 V(alias(*)) I(alias(*)) W(alias(*)) D(alias(*)) NOISE(alias(*)) 
.INC "..\_Fig3_28_MSD.net" 



**** INCLUDING _Fig3_28_MSD.net ****
* source _FIG3_28_MSD
R_Rrc         RCFILT 0  100G TC=0,0 
V_Bnoise1         RCFILT 0 DC 1/SQRT(1+(V(f)/1.592e6)_2  
-------------------------------------$
ERROR -- Expecting keyword STIMULUS, saw 1+.

R_Rdig         DIGFILT 0  100G TC=0,0 
V_Bnoise         DIGFILT 0 DC 1/SQRT(1+(V(f)/1.592e6)_2  
-------------------------------------$
ERROR -- Expecting keyword STIMULUS, saw 1+.

I_Itime         N25098 0 DC -1  
C_Ctime         N25098 0  1   
R_Rtime         0 N25098  100G TC=0,0 

**** RESUMING _Fig3_28_MSD.cir ****
.END
