
**** 07/02/13 16:11:27 ***** PSpice 16.6.0 (October 2012) ***** ID# 0 ********

 ** Profile: "Fig10_12_NMOS_long-tran"  [ C:\Users\jbaker\Desktop\Chap10_PSpice\Fig10_12_NMOS_long\Fig10_12_nmos_long-pspicefiles\Fig


 ****     CIRCUIT DESCRIPTION


******************************************************************************




** Creating circuit file "tran.cir" 
** WARNING: THIS AUTOMATICALLY GENERATED FILE MAY BE OVERWRITTEN BY SUBSEQUENT SIMULATIONS

*Libraries: 
* Profile Libraries :
* Local Libraries :
.LIB "../../../Fig10_12_nmos_long-pspicefiles/Fig10_12_nmos_long.lib" 
* From [PSPICE NETLIST] section of C:\SPB_Data\cdssetup\OrCAD_PSpice/16.6.0/PSpice.ini file:
.lib "nom.lib" 

*Analysis directives: 
.TRAN  0 600p 0 
.OPTIONS ADVCONV
.PROBE64 V(alias(*)) I(alias(*)) W(alias(*)) D(alias(*)) NOISE(alias(*)) 
.INC "..\Fig10_12_NMOS_long.net" 



**** INCLUDING Fig10_12_NMOS_long.net ****
* source FIG10_12_NMOS_LONG
V_Vin         VIN 0  
+PULSE 0 5 200p 100p 
M_M1         VOUT VIN 0 0 N_1u  
+ L=1u  
+ W=10u         
C_C1         VOUT 0  50f IC=5 TC=0,0 

**** RESUMING tran.cir ****
.END

**** 07/02/13 16:11:27 ***** PSpice 16.6.0 (October 2012) ***** ID# 0 ********

 ** Profile: "Fig10_12_NMOS_long-tran"  [ C:\Users\jbaker\Desktop\Chap10_PSpice\Fig10_12_NMOS_long\Fig10_12_nmos_long-pspicefiles\Fig


 ****     MOSFET MODEL PARAMETERS


******************************************************************************




               N_1u            
               NMOS            
       LEVEL    3            
           L  100.000000E-06 
           W  100.000000E-06 
          LD  100.000000E-09 
         VTO     .8          
          KP  120.000000E-06 
       GAMMA     .5          
         PHI     .7          
      LAMBDA    0            
          IS   10.000000E-15 
          JS    0            
          PB    1            
        PBSW    1            
          CJ  400.000000E-06 
        CJSW  300.000000E-12 
        MJSW     .5          
        CGSO  200.000000E-12 
        CGDO  200.000000E-12 
        CGBO  100.000000E-12 
        NSUB  100.000000E+15 
         NFS    1.000000E+12 
         TOX   20.000000E-09 
          XJ  500.000000E-09 
          UO  650            
       UCRIT   10.000000E+03 
        VMAX  100.000000E+03 
       DELTA    3            
       THETA     .1          
         ETA    3.000000E-06 
       KAPPA     .3          
      DIOMOD    1            
         VFB    0            
        LETA    0            
        WETA    0            
          U0    0            
        TEMP    0            
         VDD    5            
       XPART    0            


**** 07/02/13 16:11:27 ***** PSpice 16.6.0 (October 2012) ***** ID# 0 ********

 ** Profile: "Fig10_12_NMOS_long-tran"  [ C:\Users\jbaker\Desktop\Chap10_PSpice\Fig10_12_NMOS_long\Fig10_12_nmos_long-pspicefiles\Fig


 ****     INITIAL TRANSIENT SOLUTION       TEMPERATURE =   27.000 DEG C


******************************************************************************



 NODE   VOLTAGE     NODE   VOLTAGE     NODE   VOLTAGE     NODE   VOLTAGE


(  VIN)    0.0000  ( VOUT)    5.0000  




    VOLTAGE SOURCE CURRENTS
    NAME         CURRENT

    V_Vin        0.000E+00

    TOTAL POWER DISSIPATION   0.00E+00  WATTS



          JOB CONCLUDED

**** 07/02/13 16:11:27 ***** PSpice 16.6.0 (October 2012) ***** ID# 0 ********

 ** Profile: "Fig10_12_NMOS_long-tran"  [ C:\Users\jbaker\Desktop\Chap10_PSpice\Fig10_12_NMOS_long\Fig10_12_nmos_long-pspicefiles\Fig


 ****     JOB STATISTICS SUMMARY


******************************************************************************



  Total job time (using Solver 1)   =         .02
