
**** 07/05/13 13:58:58 ***** PSpice 16.6.0 (October 2012) ***** ID# 0 ********

 ** Profile: "_Fig4_51_MSD-_Fig4_51_MSD"  [ C:\Users\Christian\Desktop\MSD\Ch4_MSD_PSpice\_Fig4_51_MSD\_Fig4_51_MSD-pspicefiles\_Fig4


 ****     CIRCUIT DESCRIPTION


******************************************************************************




** Creating circuit file "_Fig4_51_MSD.cir" 
** WARNING: THIS AUTOMATICALLY GENERATED FILE MAY BE OVERWRITTEN BY SUBSEQUENT SIMULATIONS

*Libraries: 
* Profile Libraries :
* Local Libraries :
* From [PSPICE NETLIST] section of C:\SPB_Data\cdssetup\OrCAD_PSpice/16.6.0/PSpice.ini file:
.lib "nom.lib" 

*Analysis directives: 
.AC LIN 1000 10k 200MEG
.OPTIONS ADVCONV
.PROBE64 V(alias(*)) I(alias(*)) W(alias(*)) D(alias(*)) NOISE(alias(*)) 
.INC "..\_Fig4_51_MSD.net" 



**** INCLUDING _Fig4_51_MSD.net ****
* source _FIG4_51_MSD
V_V1         N28813 0 DC 0Vdc AC 1Vac 
E_Eadd1         N28503 0 N28813 N28806 1
E_E2         N28677 0 N28497 0 1
E_E1         VOUT 0 N28671 0 .01
E_Esum1         N28806 0 N28743 N28774 -1
E_EA1         N28743 0 N28677 0 1.859
E_EA2         N28774 0 N28671 0 .869
R_R1         0 N28497  50 TC=0,0 
T_T1         N28503 0 N28497 0 Z0=50 TD=10n  
T_T2         N28677 0 N28671 0 Z0=50 TD=10n  
R_R2         0 N28671  50 TC=0,0 

**** RESUMING _Fig4_51_MSD.cir ****
.END

**** 07/05/13 13:58:58 ***** PSpice 16.6.0 (October 2012) ***** ID# 0 ********

 ** Profile: "_Fig4_51_MSD-_Fig4_51_MSD"  [ C:\Users\Christian\Desktop\MSD\Ch4_MSD_PSpice\_Fig4_51_MSD\_Fig4_51_MSD-pspicefiles\_Fig4


 ****     SMALL SIGNAL BIAS SOLUTION       TEMPERATURE =   27.000 DEG C


******************************************************************************



 NODE   VOLTAGE     NODE   VOLTAGE     NODE   VOLTAGE     NODE   VOLTAGE


( VOUT)    0.0000  (N28497)    0.0000 (N28503)    0.0000 (N28671)    0.0000     

(N28677)    0.0000 (N28743)    0.0000 (N28774)    0.0000 (N28806)    0.0000     

(N28813)    0.0000 




    VOLTAGE SOURCE CURRENTS
    NAME         CURRENT

    V_V1         0.000E+00

    TOTAL POWER DISSIPATION   0.00E+00  WATTS



          JOB CONCLUDED

**** 07/05/13 13:58:58 ***** PSpice 16.6.0 (October 2012) ***** ID# 0 ********

 ** Profile: "_Fig4_51_MSD-_Fig4_51_MSD"  [ C:\Users\Christian\Desktop\MSD\Ch4_MSD_PSpice\_Fig4_51_MSD\_Fig4_51_MSD-pspicefiles\_Fig4


 ****     JOB STATISTICS SUMMARY


******************************************************************************



  Total job time (using Solver 1)   =         .02
