
**** 06/29/13 10:15:37 ****** PSpice Lite (October 2012) ****** ID# 10813 ****

 ** Profile: "Fig1_17-dc"  [ C:\Users\jbaker\Desktop\PSpice_CMOSedu\Chap1_PSpice\Fig1_17\Fig1_17-pspicefiles\Fig1_17\dc.sim ] 


 ****     CIRCUIT DESCRIPTION


******************************************************************************




** Creating circuit file "dc.cir" 
** WARNING: THIS AUTOMATICALLY GENERATED FILE MAY BE OVERWRITTEN BY SUBSEQUENT SIMULATIONS

*Libraries: 
* Profile Libraries :
* Local Libraries :
.LIB "../../../Fig1_17-pspicefiles/Fig1_17.lib" 
* From [PSPICE NETLIST] section of C:\SPB_Data\cdssetup\OrCAD_PSpice/16.6.0/PSpice.ini file:
.lib "nomd.lib" 

*Analysis directives: 
.DC LIN V_Vin 0 1 1m 
.OPTIONS ADVCONV
.PROBE64 V(alias(*)) I(alias(*)) W(alias(*)) D(alias(*)) NOISE(alias(*)) 
.INC "..\Fig1_17.net" 



**** INCLUDING Fig1_17.net ****
* source FIG1_17
V_Vin         VIN 0 DC 1  
R_R1         VIN VD  1k TC=0,0 
D_D1         VD 0 mydiode 

**** RESUMING dc.cir ****
.END

**** 06/29/13 10:15:37 ****** PSpice Lite (October 2012) ****** ID# 10813 ****

 ** Profile: "Fig1_17-dc"  [ C:\Users\jbaker\Desktop\PSpice_CMOSedu\Chap1_PSpice\Fig1_17\Fig1_17-pspicefiles\Fig1_17\dc.sim ] 


 ****     Diode MODEL PARAMETERS


******************************************************************************




               mydiode         
          IS   10.000000E-15 
          RS     .1          
         CJO  100.000000E-15 



          JOB CONCLUDED

**** 06/29/13 10:15:37 ****** PSpice Lite (October 2012) ****** ID# 10813 ****

 ** Profile: "Fig1_17-dc"  [ C:\Users\jbaker\Desktop\PSpice_CMOSedu\Chap1_PSpice\Fig1_17\Fig1_17-pspicefiles\Fig1_17\dc.sim ] 


 ****     JOB STATISTICS SUMMARY


******************************************************************************



  Total job time (using Solver 1)   =         .05
