
**** 07/05/13 11:19:28 ***** PSpice 16.6.0 (October 2012) ***** ID# 0 ********

 ** Profile: "_Fig4_13_K_is_8_fs_4_AC_MSD-_Fig4_22_K_is_8_fs_4_AC_MSD"  [ C:\Users\Christian\Desktop\MSD\Ch4_MSD_PSpice\_Fig4_22_K_is


 ****     CIRCUIT DESCRIPTION


******************************************************************************




** Creating circuit file "_Fig4_22_K_is_8_fs_4_AC_MSD.cir" 
** WARNING: THIS AUTOMATICALLY GENERATED FILE MAY BE OVERWRITTEN BY SUBSEQUENT SIMULATIONS

*Libraries: 
* Profile Libraries :
* Local Libraries :
* From [PSPICE NETLIST] section of C:\SPB_Data\cdssetup\OrCAD_PSpice/16.6.0/PSpice.ini file:
.lib "nom.lib" 

*Analysis directives: 
.AC LIN 1000 1k 100MEG
.OPTIONS ADVCONV
.PROBE64 V(alias(*)) I(alias(*)) W(alias(*)) D(alias(*)) NOISE(alias(*)) 
.INC "..\_Fig4_13_K_is_8_fs_4_AC_MSD.net" 



**** INCLUDING _Fig4_13_K_is_8_fs_4_AC_MSD.net ****
* source _FIG4_22_K_IS_8_FS_4_AC_MSD
R_R2         0 N28024  50 TC=0,0 
V_V1         VIN 0 DC 0Vdc AC 1Vac 
E_E1         N27906 0 VIN N27880 1
E_E3         N27916 0 N28024 0 1
R_R1         0 N27880  50 TC=0,0 
T_T1         VIN 0 N27880 0 Z0=50 TD=80n  
E_E2         VOUT 0 N27906 N27916 1
T_T2         N28024 0 VOUT 0 Z0=50 TD=20n  

**** RESUMING _Fig4_22_K_is_8_fs_4_AC_MSD.cir ****
.END

**** 07/05/13 11:19:28 ***** PSpice 16.6.0 (October 2012) ***** ID# 0 ********

 ** Profile: "_Fig4_13_K_is_8_fs_4_AC_MSD-_Fig4_22_K_is_8_fs_4_AC_MSD"  [ C:\Users\Christian\Desktop\MSD\Ch4_MSD_PSpice\_Fig4_22_K_is


 ****     SMALL SIGNAL BIAS SOLUTION       TEMPERATURE =   27.000 DEG C


******************************************************************************



 NODE   VOLTAGE     NODE   VOLTAGE     NODE   VOLTAGE     NODE   VOLTAGE


(  VIN)    0.0000  ( VOUT)    0.0000  (N27880)    0.0000 (N27906)    0.0000     

(N27916)    0.0000 (N28024)    0.0000 




    VOLTAGE SOURCE CURRENTS
    NAME         CURRENT

    V_V1         0.000E+00

    TOTAL POWER DISSIPATION   0.00E+00  WATTS



          JOB CONCLUDED

**** 07/05/13 11:19:28 ***** PSpice 16.6.0 (October 2012) ***** ID# 0 ********

 ** Profile: "_Fig4_13_K_is_8_fs_4_AC_MSD-_Fig4_22_K_is_8_fs_4_AC_MSD"  [ C:\Users\Christian\Desktop\MSD\Ch4_MSD_PSpice\_Fig4_22_K_is


 ****     JOB STATISTICS SUMMARY


******************************************************************************



  Total job time (using Solver 1)   =         .02
