
**** 07/02/13 16:02:51 ***** PSpice 16.6.0 (October 2012) ***** ID# 0 ********

 ** Profile: "Tab9_1_ftn-ac"  [ C:\Users\jbaker\Desktop\Chap9_PSpice\Tab9_1_ftn\Tab9_1_ftn-pspicefiles\Tab9_1_ftn\ac.sim ] 


 ****     CIRCUIT DESCRIPTION


******************************************************************************




** Creating circuit file "ac.cir" 
** WARNING: THIS AUTOMATICALLY GENERATED FILE MAY BE OVERWRITTEN BY SUBSEQUENT SIMULATIONS

*Libraries: 
* Profile Libraries :
* Local Libraries :
.LIB "../../../Tab9_1_ftn-pspicefiles/Tab9_1_ftn.lib" 
* From [PSPICE NETLIST] section of C:\SPB_Data\cdssetup\OrCAD_PSpice/16.6.0/PSpice.ini file:
.lib "nom.lib" 

*Analysis directives: 
.AC DEC 100 1MEG 1G
.OPTIONS ADVCONV
.PROBE64 V(alias(*)) I(alias(*)) W(alias(*)) D(alias(*)) NOISE(alias(*)) 
.INC "..\Tab9_1_ftn.net" 



**** INCLUDING Tab9_1_ftn.net ****
* source TAB9_1_FTN
V_VDS         N03542 0 DC 250m  
V_VGS         N03536 0 DC 1.05 AC 1 
V_VSB         0 N03612 DC 0  
M_M1         N03542 N03536 0 N03612 N_1u  
+ L=2u  
+ W=10u         

**** RESUMING ac.cir ****
.END

WARNING(ORPSIM-15223): Library file C:\Users\jbaker\Desktop\Chap9_PSpice\Tab9_1_ftn\Tab9_1_ftn-pspicefiles\tab9_1_ftn.lib has changed since index file Tab9_1_ftn.ind was created.

WARNING(ORPSIM-15227): The timestamp changed from Sun Jun 23 14:10:15 2013 to Sun Jun 23 14:10:16 2013.

INFO(ORPSIM-15422): Making new index file Tab9_1_ftn.ind for library file Tab9_1_ftn.lib.

Index has 1 entries from 1 file(s).

**** 07/02/13 16:02:51 ***** PSpice 16.6.0 (October 2012) ***** ID# 0 ********

 ** Profile: "Tab9_1_ftn-ac"  [ C:\Users\jbaker\Desktop\Chap9_PSpice\Tab9_1_ftn\Tab9_1_ftn-pspicefiles\Tab9_1_ftn\ac.sim ] 


 ****     MOSFET MODEL PARAMETERS


******************************************************************************




               N_1u            
               NMOS            
       LEVEL    3            
           L  100.000000E-06 
           W  100.000000E-06 
          LD  100.000000E-09 
         VTO     .8          
          KP  120.000000E-06 
       GAMMA     .5          
         PHI     .7          
      LAMBDA    0            
          IS   10.000000E-15 
          JS    0            
          PB    1            
        PBSW    1            
          CJ  400.000000E-06 
        CJSW  300.000000E-12 
        MJSW     .5          
        CGSO  200.000000E-12 
        CGDO  200.000000E-12 
        CGBO  100.000000E-12 
        NSUB  100.000000E+15 
         NFS    1.000000E+12 
         TOX   20.000000E-09 
          XJ  500.000000E-09 
          UO  650            
       UCRIT   10.000000E+03 
        VMAX  100.000000E+03 
       DELTA    3            
       THETA     .1          
         ETA    3.000000E-06 
       KAPPA     .3          
      DIOMOD    1            
         VFB    0            
        LETA    0            
        WETA    0            
          U0    0            
        TEMP    0            
         VDD    5            
       XPART    0            


**** 07/02/13 16:02:51 ***** PSpice 16.6.0 (October 2012) ***** ID# 0 ********

 ** Profile: "Tab9_1_ftn-ac"  [ C:\Users\jbaker\Desktop\Chap9_PSpice\Tab9_1_ftn\Tab9_1_ftn-pspicefiles\Tab9_1_ftn\ac.sim ] 


 ****     SMALL SIGNAL BIAS SOLUTION       TEMPERATURE =   27.000 DEG C


******************************************************************************



 NODE   VOLTAGE     NODE   VOLTAGE     NODE   VOLTAGE     NODE   VOLTAGE


(N03536)    1.0500 (N03542)     .2500 (N03612)    0.0000 




    VOLTAGE SOURCE CURRENTS
    NAME         CURRENT

    V_VDS       -1.678E-05
    V_VGS        0.000E+00
    V_VSB       -2.600E-13

    TOTAL POWER DISSIPATION   4.19E-06  WATTS



          JOB CONCLUDED

**** 07/02/13 16:02:51 ***** PSpice 16.6.0 (October 2012) ***** ID# 0 ********

 ** Profile: "Tab9_1_ftn-ac"  [ C:\Users\jbaker\Desktop\Chap9_PSpice\Tab9_1_ftn\Tab9_1_ftn-pspicefiles\Tab9_1_ftn\ac.sim ] 


 ****     JOB STATISTICS SUMMARY


******************************************************************************



  Total job time (using Solver 1)   =         .27
