
**** 07/02/13 20:39:32 ****** PSpice Lite (October 2012) ****** ID# 10813 ****

 ** Profile: "_Fig2_18_MSD-_Fig2_18_MSD"  [ C:\Users\jbaker\Desktop\Ch2_MSD\_Fig2_18_MSD-pspicefiles\_Fig2_18_MSD\_Fig2_18_MSD.sim ] 


 ****     CIRCUIT DESCRIPTION


******************************************************************************




** Creating circuit file "_Fig2_18_MSD.cir" 
** WARNING: THIS AUTOMATICALLY GENERATED FILE MAY BE OVERWRITTEN BY SUBSEQUENT SIMULATIONS

*Libraries: 
* Profile Libraries :
* Local Libraries :
* From [PSPICE NETLIST] section of C:\SPB_Data\cdssetup\OrCAD_PSpice/16.6.0/PSpice.ini file:
.lib "nomd.lib" 

*Analysis directives: 
.TRAN  0 2us 0 .001us SKIPBP 
.OPTIONS ADVCONV
.PROBE64 V(alias(*)) I(alias(*)) W(alias(*)) D(alias(*)) NOISE(alias(*)) 
.INC "..\_Fig2_18_MSD.net" 



**** INCLUDING _Fig2_18_MSD.net ****
* source _FIG2_18_MSD
E_E2         0 VOUT N00534 VOUT 100Meg
X_S1    VTRIP CLOCK VINB VINS _Fig2_18_MSD_S1 
X_S2    CLOCK VTRIP VINS N00534 _Fig2_18_MSD_S2 
E_E1         0 VINB VIN VINB 100Meg
C_C1         0 VINS  1e-10  TC=0,0 
C_C2         0 N00534  1e-16  TC=0,0 
V_Vtrip         VTRIP 0 DC .5  
V_Vin         VIN 0  
+SIN .5 .5 3Meg 0 0 0
V_Vclock         CLOCK 0  
+PULSE 0 1 0 0 0 4.9n 10n

.subckt _Fig2_18_MSD_S1 1 2 3 4  
S_S1         3 4 1 2 _S1
RS_S1         1 2 1G
.MODEL         _S1 VSWITCH Roff=1e9 Ron=1.0 Voff=-1e-3 Von=1e-3
.ends _Fig2_18_MSD_S1

.subckt _Fig2_18_MSD_S2 1 2 3 4  
S_S2         3 4 1 2 _S2
RS_S2         1 2 1G
.MODEL         _S2 VSWITCH Roff=1e9 Ron=1.0 Voff=-1e-3 Von=1e-3
.ends _Fig2_18_MSD_S2

**** RESUMING _Fig2_18_MSD.cir ****
.END

**** 07/02/13 20:39:32 ****** PSpice Lite (October 2012) ****** ID# 10813 ****

 ** Profile: "_Fig2_18_MSD-_Fig2_18_MSD"  [ C:\Users\jbaker\Desktop\Ch2_MSD\_Fig2_18_MSD-pspicefiles\_Fig2_18_MSD\_Fig2_18_MSD.sim ] 


 ****     Voltage Controlled Switch MODEL PARAMETERS


******************************************************************************




               X_S1._S1        X_S2._S2        
         RON    1               1            
        ROFF    1.000000E+09    1.000000E+09 
         VON    1.000000E-03    1.000000E-03 
        VOFF   -1.000000E-03   -1.000000E-03 



          JOB CONCLUDED

**** 07/02/13 20:39:32 ****** PSpice Lite (October 2012) ****** ID# 10813 ****

 ** Profile: "_Fig2_18_MSD-_Fig2_18_MSD"  [ C:\Users\jbaker\Desktop\Ch2_MSD\_Fig2_18_MSD-pspicefiles\_Fig2_18_MSD\_Fig2_18_MSD.sim ] 


 ****     JOB STATISTICS SUMMARY


******************************************************************************



  Total job time (using Solver 1)   =         .25
