
**** 07/02/13 15:33:58 ***** PSpice 16.6.0 (October 2012) ***** ID# 0 ********

 ** Profile: "Fig9_19-ac"  [ C:\Users\jbaker\Desktop\Chap9_PSpice\Fig9_19\Fig9_19-pspicefiles\Fig9_19\ac.sim ] 


 ****     CIRCUIT DESCRIPTION


******************************************************************************




** Creating circuit file "ac.cir" 
** WARNING: THIS AUTOMATICALLY GENERATED FILE MAY BE OVERWRITTEN BY SUBSEQUENT SIMULATIONS

*Libraries: 
* Profile Libraries :
* Local Libraries :
.LIB "../../../Fig9_19-pspicefiles/Fig9_19.lib" 
* From [PSPICE NETLIST] section of C:\SPB_Data\cdssetup\OrCAD_PSpice/16.6.0/PSpice.ini file:
.lib "nom.lib" 

*Analysis directives: 
.AC DEC 100 1 10k
.OPTIONS ADVCONV
.PROBE64 V(alias(*)) I(alias(*)) W(alias(*)) D(alias(*)) NOISE(alias(*)) 
.INC "..\Fig9_19.net" 



**** INCLUDING Fig9_19.net ****
* source FIG9_19
M_M1         VD13 N00488 VS12 0 N_1u  
+ L=2u  
+ W=10u         
M_M2         VD24 N00484 VS12 0 N_1u  
+ L=2u  
+ W=10u         
M_M3         VD13 VD13 VDD VDD P_1u  
+ L=2u  
+ W=30u         
M_M4         VD24 0 VDD VDD P_1u  
+ L=2u  
+ W=30u         
V_VG1         N00488 0 DC 2.5 AC 1m 
V_VG2         N00484 0 DC 2.5  
V_VDD         VDD 0 DC 5  
I_Ibias         VS12 0 DC 40u  

**** RESUMING ac.cir ****
.END

**** 07/02/13 15:33:58 ***** PSpice 16.6.0 (October 2012) ***** ID# 0 ********

 ** Profile: "Fig9_19-ac"  [ C:\Users\jbaker\Desktop\Chap9_PSpice\Fig9_19\Fig9_19-pspicefiles\Fig9_19\ac.sim ] 


 ****     MOSFET MODEL PARAMETERS


******************************************************************************




               N_1u            P_1u            
               NMOS            PMOS            
       LEVEL    3               3            
         TPG                   -1            
           L  100.000000E-06  100.000000E-06 
           W  100.000000E-06  100.000000E-06 
          LD  100.000000E-09  100.000000E-09 
         VTO     .8             -.9          
          KP  120.000000E-06   40.000000E-06 
       GAMMA     .5              .6          
         PHI     .7              .7          
      LAMBDA    0               0            
          IS   10.000000E-15   10.000000E-15 
          JS    0               0            
          PB    1               1            
        PBSW    1               1            
          CJ  400.000000E-06  400.000000E-06 
        CJSW  300.000000E-12  300.000000E-12 
        MJSW     .5              .5          
        CGSO  200.000000E-12  200.000000E-12 
        CGDO  200.000000E-12  200.000000E-12 
        CGBO  100.000000E-12  100.000000E-12 
        NSUB  100.000000E+15  100.000000E+15 
         NFS    1.000000E+12    1.000000E+12 
         TOX   20.000000E-09   20.000000E-09 
          XJ  500.000000E-09  500.000000E-09 
          UO  650             250            
       UCRIT   10.000000E+03   10.000000E+03 
        VMAX  100.000000E+03   50.000000E+03 
       DELTA    3                .1          
       THETA     .1              .1          
         ETA    3.000000E-06    0            
       KAPPA     .3             1            
      DIOMOD    1               1            
         VFB    0               0            
        LETA    0               0            
        WETA    0               0            
          U0    0               0            
        TEMP    0               0            
         VDD    5               5            
       XPART    0               0            


**** 07/02/13 15:33:58 ***** PSpice 16.6.0 (October 2012) ***** ID# 0 ********

 ** Profile: "Fig9_19-ac"  [ C:\Users\jbaker\Desktop\Chap9_PSpice\Fig9_19\Fig9_19-pspicefiles\Fig9_19\ac.sim ] 


 ****     SMALL SIGNAL BIAS SOLUTION       TEMPERATURE =   27.000 DEG C


******************************************************************************



 NODE   VOLTAGE     NODE   VOLTAGE     NODE   VOLTAGE     NODE   VOLTAGE


(  VDD)    5.0000  ( VD13)    3.8550  ( VD24)    4.9896  ( VS12)    1.1712      

(N00484)    2.5000 (N00488)    2.5000 




    VOLTAGE SOURCE CURRENTS
    NAME         CURRENT

    V_VG1        0.000E+00
    V_VG2        0.000E+00
    V_VDD       -4.000E-05

    TOTAL POWER DISSIPATION   2.00E-04  WATTS



          JOB CONCLUDED

**** 07/02/13 15:33:58 ***** PSpice 16.6.0 (October 2012) ***** ID# 0 ********

 ** Profile: "Fig9_19-ac"  [ C:\Users\jbaker\Desktop\Chap9_PSpice\Fig9_19\Fig9_19-pspicefiles\Fig9_19\ac.sim ] 


 ****     JOB STATISTICS SUMMARY


******************************************************************************



  Total job time (using Solver 1)   =         .03
