
**** 06/29/13 10:19:12 ****** PSpice Lite (October 2012) ****** ID# 10813 ****

 ** Profile: "Fig1_23-AC"  [ C:\Users\jbaker\Desktop\PSpice_CMOSedu\Chap1_PSpice\Fig1_23\fig1_23-pspicefiles\fig1_23\ac.sim ] 


 ****     CIRCUIT DESCRIPTION


******************************************************************************




** Creating circuit file "AC.cir" 
** WARNING: THIS AUTOMATICALLY GENERATED FILE MAY BE OVERWRITTEN BY SUBSEQUENT SIMULATIONS

*Libraries: 
* Profile Libraries :
* Local Libraries :
* From [PSPICE NETLIST] section of C:\SPB_Data\cdssetup\OrCAD_PSpice/16.6.0/PSpice.ini file:
.lib "nomd.lib" 

*Analysis directives: 
.AC DEC 100 1 10000
.OPTIONS ADVCONV
.PROBE64 V(alias(*)) I(alias(*)) W(alias(*)) D(alias(*)) NOISE(alias(*)) 
.INC "..\Fig1_23.net" 



**** INCLUDING Fig1_23.net ****
* source FIG1_23
R_R1         VIN VOUT  1k TC=0,0 
V_Vin         VIN 0  AC 1
+SIN 0 1 200 0 0 0
C_C1         0 VOUT  1u  TC=0,0 

**** RESUMING AC.cir ****
.END

**** 06/29/13 10:19:12 ****** PSpice Lite (October 2012) ****** ID# 10813 ****

 ** Profile: "Fig1_23-AC"  [ C:\Users\jbaker\Desktop\PSpice_CMOSedu\Chap1_PSpice\Fig1_23\fig1_23-pspicefiles\fig1_23\ac.sim ] 


 ****     SMALL SIGNAL BIAS SOLUTION       TEMPERATURE =   27.000 DEG C


******************************************************************************



 NODE   VOLTAGE     NODE   VOLTAGE     NODE   VOLTAGE     NODE   VOLTAGE


(  VIN)    0.0000  ( VOUT)    0.0000  




    VOLTAGE SOURCE CURRENTS
    NAME         CURRENT

    V_Vin        0.000E+00

    TOTAL POWER DISSIPATION   0.00E+00  WATTS



          JOB CONCLUDED

**** 06/29/13 10:19:12 ****** PSpice Lite (October 2012) ****** ID# 10813 ****

 ** Profile: "Fig1_23-AC"  [ C:\Users\jbaker\Desktop\PSpice_CMOSedu\Chap1_PSpice\Fig1_23\fig1_23-pspicefiles\fig1_23\ac.sim ] 


 ****     JOB STATISTICS SUMMARY


******************************************************************************



  Total job time (using Solver 1)   =         .02
