
**** 07/05/13 10:24:03 ***** PSpice 16.6.0 (October 2012) ***** ID# 0 ********

 ** Profile: "_Fig4_13_K_is_2_AC_MSD-_Fig4_13_K_is_2_AC_MSD"  [ C:\USERS\CHRISTIAN\DESKTOP\MSD\Ch4_MSD_PSpice\_Fig4_13_K_is_2_AC_MSD\


 ****     CIRCUIT DESCRIPTION


******************************************************************************




** Creating circuit file "_Fig4_13_K_is_2_AC_MSD.cir" 
** WARNING: THIS AUTOMATICALLY GENERATED FILE MAY BE OVERWRITTEN BY SUBSEQUENT SIMULATIONS

*Libraries: 
* Profile Libraries :
* Local Libraries :
* From [PSPICE NETLIST] section of C:\SPB_Data\cdssetup\OrCAD_PSpice/16.6.0/PSpice.ini file:
.lib "nom.lib" 

*Analysis directives: 
.AC LIN 1000 1k 100MEG
.OPTIONS ADVCONV
.PROBE64 V(alias(*)) I(alias(*)) W(alias(*)) D(alias(*)) NOISE(alias(*)) 
.INC "..\_Fig4_13_K_is_2_AC_MSD.net" 



**** INCLUDING _Fig4_13_K_is_2_AC_MSD.net ****
* source _FIG4_13_K_IS_2_AC_MSD
T_T1         N24625 0 N24637 0 Z0=50 TD=20n  
T_T2         N24648 0 VOUT 0 Z0=50 TD=10n  
E_E1         N24664 0 N24625 N24637 1
E_E2         VOUT 0 N24664 N24644 1
E_E3         N24644 0 0 N24648 1
V_V1         N24625 0 DC 0Vdc AC 1Vac 
R_R1         0 N24637  50 TC=0,0 
R_R2         0 N24648  50 TC=0,0 

**** RESUMING _Fig4_13_K_is_2_AC_MSD.cir ****
.END

**** 07/05/13 10:24:03 ***** PSpice 16.6.0 (October 2012) ***** ID# 0 ********

 ** Profile: "_Fig4_13_K_is_2_AC_MSD-_Fig4_13_K_is_2_AC_MSD"  [ C:\USERS\CHRISTIAN\DESKTOP\MSD\Ch4_MSD_PSpice\_Fig4_13_K_is_2_AC_MSD\


 ****     SMALL SIGNAL BIAS SOLUTION       TEMPERATURE =   27.000 DEG C


******************************************************************************



 NODE   VOLTAGE     NODE   VOLTAGE     NODE   VOLTAGE     NODE   VOLTAGE


( VOUT)    0.0000  (N24625)    0.0000 (N24637)    0.0000 (N24644)    0.0000     

(N24648)    0.0000 (N24664)    0.0000 




    VOLTAGE SOURCE CURRENTS
    NAME         CURRENT

    V_V1         0.000E+00

    TOTAL POWER DISSIPATION   0.00E+00  WATTS



          JOB CONCLUDED

**** 07/05/13 10:24:03 ***** PSpice 16.6.0 (October 2012) ***** ID# 0 ********

 ** Profile: "_Fig4_13_K_is_2_AC_MSD-_Fig4_13_K_is_2_AC_MSD"  [ C:\USERS\CHRISTIAN\DESKTOP\MSD\Ch4_MSD_PSpice\_Fig4_13_K_is_2_AC_MSD\


 ****     JOB STATISTICS SUMMARY


******************************************************************************



  Total job time (using Solver 1)   =         .02
