
**** 07/03/13 17:16:47 ***** PSpice 16.6.0 (October 2012) ***** ID# 0 ********

 ** Profile: "_Fig3_28_MSD_alt-_Fig3_28_MSD_alt"  [ C:\Users\jbaker\Desktop\Ch3_MSD_PSpice\_fig3_28_msd_alt-pspicefiles\_fig3_28_msd_


 ****     CIRCUIT DESCRIPTION


******************************************************************************




** Creating circuit file "_Fig3_28_MSD_alt.cir" 
** WARNING: THIS AUTOMATICALLY GENERATED FILE MAY BE OVERWRITTEN BY SUBSEQUENT SIMULATIONS

*Libraries: 
* Profile Libraries :
* Local Libraries :
* From [PSPICE NETLIST] section of C:\SPB_Data\cdssetup\OrCAD_PSpice/16.6.0/PSpice.ini file:
.lib "nom.lib" 

*Analysis directives: 
.AC DEC 1000 10k 200meg
.OPTIONS ADVCONV
.PROBE64 V(alias(*)) I(alias(*)) W(alias(*)) D(alias(*)) NOISE(alias(*)) 
.INC "..\_Fig3_28_MSD_alt.net" 



**** INCLUDING _Fig3_28_MSD_alt.net ****
* source _FIG3_28_MSD_ALT
E_Eadd1         VOADD1 0 VIN VOUT .1
E_Eadd2         VOADD2 0 VOADD1 VOUTM 1
E_Eneg         VOUTM 0 VOUT 0 -1
T_T1         VOADD2 0 VOUT 0 Z0=50 TD=10n  
R_R1         0 VOUT  50 TC=0,0 
V_Vin         VIN 0 DC 0Vdc AC 1Vac 

**** RESUMING _Fig3_28_MSD_alt.cir ****
.END

**** 07/03/13 17:16:47 ***** PSpice 16.6.0 (October 2012) ***** ID# 0 ********

 ** Profile: "_Fig3_28_MSD_alt-_Fig3_28_MSD_alt"  [ C:\Users\jbaker\Desktop\Ch3_MSD_PSpice\_fig3_28_msd_alt-pspicefiles\_fig3_28_msd_


 ****     SMALL SIGNAL BIAS SOLUTION       TEMPERATURE =   27.000 DEG C


******************************************************************************



 NODE   VOLTAGE     NODE   VOLTAGE     NODE   VOLTAGE     NODE   VOLTAGE


(  VIN)    0.0000  ( VOUT)    0.0000  (VOUTM)    0.0000  (VOADD1)    0.0000     

(VOADD2)    0.0000 




    VOLTAGE SOURCE CURRENTS
    NAME         CURRENT

    V_Vin        0.000E+00

    TOTAL POWER DISSIPATION   0.00E+00  WATTS



          JOB CONCLUDED

**** 07/03/13 17:16:47 ***** PSpice 16.6.0 (October 2012) ***** ID# 0 ********

 ** Profile: "_Fig3_28_MSD_alt-_Fig3_28_MSD_alt"  [ C:\Users\jbaker\Desktop\Ch3_MSD_PSpice\_fig3_28_msd_alt-pspicefiles\_fig3_28_msd_


 ****     JOB STATISTICS SUMMARY


******************************************************************************



  Total job time (using Solver 1)   =         .05
