
**** 06/12/13 11:53:41 ******* PSpice 16.3.0 (June 2009) ****** ID# 0 ********

 ** Profile: "SCHEMATIC1-_Fig1_12_MSD"  [ C:\Users\HomePC\Documents\Spring 2013\PSpice_CMOSedu\MSD\Ch1_MSD_Pspice\_Fig1_12_MSD\_fig1_


 ****     CIRCUIT DESCRIPTION


******************************************************************************




** Creating circuit file "_Fig1_12_MSD.cir" 
** WARNING: THIS AUTOMATICALLY GENERATED FILE MAY BE OVERWRITTEN BY SUBSEQUENT SIMULATIONS

*Libraries: 
* Profile Libraries :
* Local Libraries :
* From [PSPICE NETLIST] section of C:\Cadence\SPB_16.3\tools\PSpice\PSpice.ini file:
.lib "nom.lib" 

*Analysis directives: 
.AC LIN 1000 10k 500Meg
.PROBE V(alias(*)) I(alias(*)) W(alias(*)) D(alias(*)) NOISE(alias(*)) 
.INC "..\SCHEMATIC1.net" 



**** INCLUDING SCHEMATIC1.net ****
* source _FIG1_12_MSD
T_T1         VIN 0 N00162 0 Z0=50 TD=5ns  
R_R1         0 N00162  50 TC=0,0 
R_R2         VOUT N00162  5k TC=0,0 
R_R3         VIN VOUT  5k TC=0,0 
V_V1         VIN 0 DC 0Vdc AC 1Vac 

**** RESUMING _Fig1_12_MSD.cir ****
.END

**** 06/12/13 11:53:41 ******* PSpice 16.3.0 (June 2009) ****** ID# 0 ********

 ** Profile: "SCHEMATIC1-_Fig1_12_MSD"  [ C:\Users\HomePC\Documents\Spring 2013\PSpice_CMOSedu\MSD\Ch1_MSD_Pspice\_Fig1_12_MSD\_fig1_


 ****     SMALL SIGNAL BIAS SOLUTION       TEMPERATURE =   27.000 DEG C


******************************************************************************



 NODE   VOLTAGE     NODE   VOLTAGE     NODE   VOLTAGE     NODE   VOLTAGE


(  VIN)    0.0000  ( VOUT)    0.0000  (N00162)    0.0000 




    VOLTAGE SOURCE CURRENTS
    NAME         CURRENT

    V_V1         0.000E+00

    TOTAL POWER DISSIPATION   0.00E+00  WATTS



          JOB CONCLUDED

**** 06/12/13 11:53:41 ******* PSpice 16.3.0 (June 2009) ****** ID# 0 ********

 ** Profile: "SCHEMATIC1-_Fig1_12_MSD"  [ C:\Users\HomePC\Documents\Spring 2013\PSpice_CMOSedu\MSD\Ch1_MSD_Pspice\_Fig1_12_MSD\_fig1_


 ****     JOB STATISTICS SUMMARY


******************************************************************************



  Total job time (using Solver 1)   =         .05
