
**** 06/29/13 10:25:22 ****** PSpice Lite (October 2012) ****** ID# 10813 ****

 ** Profile: "Fig1_33-AC"  [ C:\Users\jbaker\Desktop\PSpice_CMOSedu\Chap1_PSpice\Fig1_33\Fig1_33-pspicefiles\Fig1_33\ac.sim ] 


 ****     CIRCUIT DESCRIPTION


******************************************************************************




** Creating circuit file "AC.cir" 
** WARNING: THIS AUTOMATICALLY GENERATED FILE MAY BE OVERWRITTEN BY SUBSEQUENT SIMULATIONS

*Libraries: 
* Profile Libraries :
* Local Libraries :
* From [PSPICE NETLIST] section of C:\SPB_Data\cdssetup\OrCAD_PSpice/16.6.0/PSpice.ini file:
.lib "nomd.lib" 

*Analysis directives: 
.AC DEC 100 1 10k
.OPTIONS ADVCONV
.PROBE64 V(alias(*)) I(alias(*)) W(alias(*)) D(alias(*)) NOISE(alias(*)) 
.INC "..\Fig1_33.net" 



**** INCLUDING Fig1_33.net ****
* source FIG1_33
G_U2_G1         VOUT 0 VM 0 1MEG
R_U2_R1         0 VOUT  1 TC=0,0 
V_Vin         VIN 0 DC 0 AC 1 
R_Rin         VIN VM  1k TC=0,0 
C_Cf         VM VOUT  1u  TC=0,0 

**** RESUMING AC.cir ****
.END

**** 06/29/13 10:25:22 ****** PSpice Lite (October 2012) ****** ID# 10813 ****

 ** Profile: "Fig1_33-AC"  [ C:\Users\jbaker\Desktop\PSpice_CMOSedu\Chap1_PSpice\Fig1_33\Fig1_33-pspicefiles\Fig1_33\ac.sim ] 


 ****     SMALL SIGNAL BIAS SOLUTION       TEMPERATURE =   27.000 DEG C


******************************************************************************



 NODE   VOLTAGE     NODE   VOLTAGE     NODE   VOLTAGE     NODE   VOLTAGE


(   VM)    0.0000  (  VIN)    0.0000  ( VOUT)    0.0000  




    VOLTAGE SOURCE CURRENTS
    NAME         CURRENT

    V_Vin        0.000E+00

    TOTAL POWER DISSIPATION   0.00E+00  WATTS



          JOB CONCLUDED

**** 06/29/13 10:25:22 ****** PSpice Lite (October 2012) ****** ID# 10813 ****

 ** Profile: "Fig1_33-AC"  [ C:\Users\jbaker\Desktop\PSpice_CMOSedu\Chap1_PSpice\Fig1_33\Fig1_33-pspicefiles\Fig1_33\ac.sim ] 


 ****     JOB STATISTICS SUMMARY


******************************************************************************



  Total job time (using Solver 1)   =         .02
