
**** 06/29/13 11:05:07 ****** PSpice Lite (October 2012) ****** ID# 10813 ****

 ** Profile: "Ex8_14-noise"  [ C:\Users\jbaker\Desktop\PSpice_CMOSedu\Chap8_PSpice\Ex8_14\Ex8_14-pspicefiles\Ex8_14\noise.sim ] 


 ****     CIRCUIT DESCRIPTION


******************************************************************************




** Creating circuit file "noise.cir" 
** WARNING: THIS AUTOMATICALLY GENERATED FILE MAY BE OVERWRITTEN BY SUBSEQUENT SIMULATIONS

*Libraries: 
* Profile Libraries :
* Local Libraries :
* From [PSPICE NETLIST] section of C:\SPB_Data\cdssetup\OrCAD_PSpice/16.6.0/PSpice.ini file:
.lib "nomd.lib" 

*Analysis directives: 
.AC DEC 100 100 1G
.NOISE V([VOUT],[0]) V_Vin 
.OPTIONS ADVCONV
.PROBE64 V(alias(*)) I(alias(*)) W(alias(*)) D(alias(*)) NOISE(alias(*)) 
.INC "..\Ex8_14.net" 



**** INCLUDING Ex8_14.net ****
* source EX8_14
V_Vin         N02512 0 DC 0  
R_R1         N02512 N02516  10k TC=0,0 
C_C1         N02516 VOUT  10p  TC=0,0 
E_E1         VOUT 0 0 N02516 100MEG

**** RESUMING noise.cir ****
.END

**** 06/29/13 11:05:07 ****** PSpice Lite (October 2012) ****** ID# 10813 ****

 ** Profile: "Ex8_14-noise"  [ C:\Users\jbaker\Desktop\PSpice_CMOSedu\Chap8_PSpice\Ex8_14\Ex8_14-pspicefiles\Ex8_14\noise.sim ] 


 ****     SMALL SIGNAL BIAS SOLUTION       TEMPERATURE =   27.000 DEG C


******************************************************************************



 NODE   VOLTAGE     NODE   VOLTAGE     NODE   VOLTAGE     NODE   VOLTAGE


( VOUT)    0.0000  (N02512)    0.0000 (N02516)    0.0000 




    VOLTAGE SOURCE CURRENTS
    NAME         CURRENT

    V_Vin        0.000E+00

    TOTAL POWER DISSIPATION   0.00E+00  WATTS



          JOB CONCLUDED

**** 06/29/13 11:05:07 ****** PSpice Lite (October 2012) ****** ID# 10813 ****

 ** Profile: "Ex8_14-noise"  [ C:\Users\jbaker\Desktop\PSpice_CMOSedu\Chap8_PSpice\Ex8_14\Ex8_14-pspicefiles\Ex8_14\noise.sim ] 


 ****     JOB STATISTICS SUMMARY


******************************************************************************



  Total job time (using Solver 1)   =         .05
