
**** 07/06/13 15:08:20 ****** PSpice Lite (October 2012) ****** ID# 10813 ****

 ** Profile: "Fig12_5-dc"  [ C:\Users\Roy\Desktop\Chap12_PSpice\Fig12_5\Fig12_5-PSpiceFiles\Fig12_5\dc.sim ] 


 ****     CIRCUIT DESCRIPTION


******************************************************************************




** Creating circuit file "dc.cir" 
** WARNING: THIS AUTOMATICALLY GENERATED FILE MAY BE OVERWRITTEN BY SUBSEQUENT SIMULATIONS

*Libraries: 
* Profile Libraries :
* Local Libraries :
.LIB "../../../fig12_5-pspicefiles/fig12_5.lib" 
* From [PSPICE NETLIST] section of C:\Users\Roy\AppData\Roaming\SPB_Data\cdssetup\OrCAD_PSpice/16.6.0/PSpice.ini file:
.lib "nomd.lib" 

*Analysis directives: 
.DC LIN V_Vin 0 5 1m 
.OPTIONS ADVCONV
.PROBE64 V(alias(*)) I(alias(*)) W(alias(*)) D(alias(*)) NOISE(alias(*)) 
.INC "..\Fig12_5.net" 



**** INCLUDING Fig12_5.net ****
* source FIG12_5
M_M3         VOUT VIN 0 0 N_1u  
+ L=1u  
+ W=10u         
V_VDD         VDD 0 DC 5  
M_M5         N04224 VIN N04220 VDD P_1u  
+ L=1u  
+ W=10u         
M_M4         VOUT VIN N04224 VDD P_1u  
+ L=1u  
+ W=10u         
V_Vin         VIN 0 DC 0  
M_M1         VOUT VIN 0 0 N_1u  
+ L=1u  
+ W=10u         
M_M6         N04220 VIN VDD VDD P_1u  
+ L=1u  
+ W=10u         
M_M2         VOUT VIN 0 0 N_1u  
+ L=1u  
+ W=10u         

**** RESUMING dc.cir ****
.END

INFO(ORPSIM-15423): Unable to find index file fig12_5.ind for library file fig12_5.lib.

INFO(ORPSIM-15422): Making new index file fig12_5.ind for library file fig12_5.lib.

WARNING(ORPSIM-15196): Duplicate library entry for P_1u, (type PMOS).

First entry in ../../../fig12_5-pspicefiles/fig12_5.lib, duplicate in ../../../fig12_5-pspicefiles/fig12_5.lib.
Duplicate entry ignored.

Index has 1 entries from 1 file(s).


ERROR(ORPSIM-15113): Model N_1u used by M_M3 is undefined

ERROR(ORPSIM-15113): Model N_1u used by M_M1 is undefined

ERROR(ORPSIM-15113): Model N_1u used by M_M2 is undefined
