
**** 07/03/13 17:15:13 ***** PSpice 16.6.0 (October 2012) ***** ID# 0 ********

 ** Profile: "_Fig3_23_MSD-_Fig3_23_MSD"  [ C:\Users\jbaker\Desktop\Ch3_MSD_PSpice\_fig3_23_msd-pspicefiles\_fig3_23_msd\_fig3_23_msd


 ****     CIRCUIT DESCRIPTION


******************************************************************************




** Creating circuit file "_Fig3_23_MSD.cir" 
** WARNING: THIS AUTOMATICALLY GENERATED FILE MAY BE OVERWRITTEN BY SUBSEQUENT SIMULATIONS

*Libraries: 
* Profile Libraries :
* Local Libraries :
* From [PSPICE NETLIST] section of C:\SPB_Data\cdssetup\OrCAD_PSpice/16.6.0/PSpice.ini file:
.lib "nom.lib" 

*Analysis directives: 
.TRAN  0 2000ns 0 .005n SKIPBP 
.OPTIONS ADVCONV
.PROBE64 V(alias(*)) I(alias(*)) W(alias(*)) D(alias(*)) NOISE(alias(*)) 
.INC "..\_Fig3_23_MSD.net" 



**** INCLUDING _Fig3_23_MSD.net ****
* source _FIG3_23_MSD
V_Vphi1         PHI1 0  
+PULSE 0 1 0 200p 200p 4n 10n
V_Vphi2         PHI2 0  
+PULSE 0 1 5n 200p 200p 4n 10n
V_VDD         VDD 0 DC 1  
V_VCM         VCM 0 DC .5  
G_U1_G1         0 VOUT VCM N02284 1Meg
R_U1_R1         0 VOUT  1 TC=0,0 
X_U2_S1    PHI1 U2_VTRIP VOUT N02251 switches_2_U2_S1 
R_U2_R1         0 U2_VTRIP  100Meg TC=0,0 
R_U2_R2         U2_VTRIP VDD  100Meg TC=0,0 
X_U2_S2    PHI2 U2_VTRIP N02251 N02284 switches_2_U2_S2 
C_Cl         N02255 N02251  1p  TC=0,0 
C_C1         N02284 VOUT  10p  TC=0,0 
V_Vin         VIN 0  
+SIN .5 500m 1.59Meg 0 0 0
X_U3_S1    PHI1 U3_VTRIP VIN N02255 switches_2_U3_S1 
R_U3_R1         0 U3_VTRIP  100Meg TC=0,0 
R_U3_R2         U3_VTRIP VDD  100Meg TC=0,0 
X_U3_S2    PHI2 U3_VTRIP N02255 VCM switches_2_U3_S2 

.subckt switches_2_U2_S1 1 2 3 4  
S_U2_S1         3 4 1 2 _U2_S1
RS_U2_S1         1 2 1G
.MODEL         _U2_S1 VSWITCH Roff=1e9 Ron=1.0 Voff=-1e-3 Von=1e-3
.ends switches_2_U2_S1

.subckt switches_2_U2_S2 1 2 3 4  
S_U2_S2         3 4 1 2 _U2_S2
RS_U2_S2         1 2 1G
.MODEL         _U2_S2 VSWITCH Roff=1e9 Ron=1.0 Voff=-1e-3 Von=1e-3
.ends switches_2_U2_S2

.subckt switches_2_U3_S1 1 2 3 4  
S_U3_S1         3 4 1 2 _U3_S1
RS_U3_S1         1 2 1G
.MODEL         _U3_S1 VSWITCH Roff=1e9 Ron=1.0 Voff=-1e-3 Von=1e-3
.ends switches_2_U3_S1

.subckt switches_2_U3_S2 1 2 3 4  
S_U3_S2         3 4 1 2 _U3_S2
RS_U3_S2         1 2 1G
.MODEL         _U3_S2 VSWITCH Roff=1e9 Ron=1.0 Voff=-1e-3 Von=1e-3
.ends switches_2_U3_S2

**** RESUMING _Fig3_23_MSD.cir ****
.END

**** 07/03/13 17:15:13 ***** PSpice 16.6.0 (October 2012) ***** ID# 0 ********

 ** Profile: "_Fig3_23_MSD-_Fig3_23_MSD"  [ C:\Users\jbaker\Desktop\Ch3_MSD_PSpice\_fig3_23_msd-pspicefiles\_fig3_23_msd\_fig3_23_msd


 ****     Voltage Controlled Switch MODEL PARAMETERS


******************************************************************************




               X_U2_S1._U2_S1  X_U2_S2._U2_S2  X_U3_S1._U3_S1  X_U3_S2._U3_S2  
         RON    1               1               1               1            
        ROFF    1.000000E+09    1.000000E+09    1.000000E+09    1.000000E+09 
         VON    1.000000E-03    1.000000E-03    1.000000E-03    1.000000E-03 
        VOFF   -1.000000E-03   -1.000000E-03   -1.000000E-03   -1.000000E-03 



          JOB CONCLUDED

**** 07/03/13 17:15:13 ***** PSpice 16.6.0 (October 2012) ***** ID# 0 ********

 ** Profile: "_Fig3_23_MSD-_Fig3_23_MSD"  [ C:\Users\jbaker\Desktop\Ch3_MSD_PSpice\_fig3_23_msd-pspicefiles\_fig3_23_msd\_fig3_23_msd


 ****     JOB STATISTICS SUMMARY


******************************************************************************



  Total job time (using Solver 1)   =        7.15
