
**** 06/29/13 10:58:05 ****** PSpice Lite (October 2012) ****** ID# 10813 ****

 ** Profile: "Fig6_13_PMOS-dc"  [ C:\Users\jbaker\Desktop\PSpice_CMOSedu\Chap6_PSpice\Fig6_13_PMOS\Fig6_13_pmos-pspicefiles\Fig6_13_p


 ****     CIRCUIT DESCRIPTION


******************************************************************************




** Creating circuit file "dc.cir" 
** WARNING: THIS AUTOMATICALLY GENERATED FILE MAY BE OVERWRITTEN BY SUBSEQUENT SIMULATIONS

*Libraries: 
* Profile Libraries :
* Local Libraries :
.LIB "../../../Fig6_13_pmos-pspicefiles/Fig6_13_pmos.lib" 
* From [PSPICE NETLIST] section of C:\SPB_Data\cdssetup\OrCAD_PSpice/16.6.0/PSpice.ini file:
.lib "nomd.lib" 

*Analysis directives: 
.DC LIN V_VSG 0 2 1m 
+ LIN V_VBS 0 5 1 
.OPTIONS ADVCONV
.PROBE64 V(alias(*)) I(alias(*)) W(alias(*)) D(alias(*)) NOISE(alias(*)) 
.INC "..\Fig6_13_PMOS.net" 



**** INCLUDING Fig6_13_PMOS.net ****
* source FIG6_13_PMOS
M_M1         N03602 N03558 0 N03646 P_1u  
+ L=1u  
+ W=10u         
V_VBS         N03646 0 DC 0  
V_VSG         0 N03558 DC 0  
V_VSD         0 N03602 DC 2  

**** RESUMING dc.cir ****
.END

**** 06/29/13 10:58:05 ****** PSpice Lite (October 2012) ****** ID# 10813 ****

 ** Profile: "Fig6_13_PMOS-dc"  [ C:\Users\jbaker\Desktop\PSpice_CMOSedu\Chap6_PSpice\Fig6_13_PMOS\Fig6_13_pmos-pspicefiles\Fig6_13_p


 ****     MOSFET MODEL PARAMETERS


******************************************************************************




               P_1u            
               PMOS            
       LEVEL    3            
         TPG   -1            
           L  100.000000E-06 
           W  100.000000E-06 
          LD  100.000000E-09 
         VTO    -.9          
          KP   40.000000E-06 
       GAMMA     .6          
         PHI     .7          
      LAMBDA    0            
          IS   10.000000E-15 
          JS    0            
          PB    1            
        PBSW    1            
          CJ  400.000000E-06 
        CJSW  300.000000E-12 
        MJSW     .5          
        CGSO  200.000000E-12 
        CGDO  200.000000E-12 
        CGBO  100.000000E-12 
        NSUB  100.000000E+15 
         NFS    1.000000E+12 
         TOX   20.000000E-09 
          XJ  500.000000E-09 
          UO  250            
       UCRIT   10.000000E+03 
        VMAX   50.000000E+03 
       DELTA     .1          
       THETA     .1          
         ETA    0            
       KAPPA    1            
      DIOMOD    1            
         VFB    0            
        LETA    0            
        WETA    0            
          U0    0            
        TEMP    0            
         VDD    5            
       XPART    0            



          JOB CONCLUDED

**** 06/29/13 10:58:05 ****** PSpice Lite (October 2012) ****** ID# 10813 ****

 ** Profile: "Fig6_13_PMOS-dc"  [ C:\Users\jbaker\Desktop\PSpice_CMOSedu\Chap6_PSpice\Fig6_13_PMOS\Fig6_13_pmos-pspicefiles\Fig6_13_p


 ****     JOB STATISTICS SUMMARY


******************************************************************************



  Total job time (using Solver 1)   =         .16
