
**** 07/02/13 16:03:19 ***** PSpice 16.6.0 (October 2012) ***** ID# 0 ********

 ** Profile: "Tab9_1_ftp-ac"  [ C:\Users\jbaker\Desktop\Chap9_PSpice\Tab9_1_ftp\Tab9_1_ftp-pspicefiles\Tab9_1_ftp\ac.sim ] 


 ****     CIRCUIT DESCRIPTION


******************************************************************************




** Creating circuit file "ac.cir" 
** WARNING: THIS AUTOMATICALLY GENERATED FILE MAY BE OVERWRITTEN BY SUBSEQUENT SIMULATIONS

*Libraries: 
* Profile Libraries :
* Local Libraries :
.LIB "../../../Tab9_1_ftp-pspicefiles/Tab9_1_ftp.lib" 
* From [PSPICE NETLIST] section of C:\SPB_Data\cdssetup\OrCAD_PSpice/16.6.0/PSpice.ini file:
.lib "nom.lib" 

*Analysis directives: 
.AC DEC 100 10MEG 10G
.OPTIONS ADVCONV
.PROBE64 V(alias(*)) I(alias(*)) W(alias(*)) D(alias(*)) NOISE(alias(*)) 
.INC "..\Tab9_1_ftp.net" 



**** INCLUDING Tab9_1_ftp.net ****
* source TAB9_1_FTP
V_VSG         0 N06555 DC 1.15 AC 1 
V_VSD         0 N06561 DC 250m  
M_M1         N06561 N06555 0 N06571 P_1u  
+ L=2u  
+ W=30u         
V_VBS         N06571 0 DC 0  

**** RESUMING ac.cir ****
.END

WARNING(ORPSIM-15223): Library file C:\Users\jbaker\Desktop\Chap9_PSpice\Tab9_1_ftp\Tab9_1_ftp-pspicefiles\tab9_1_ftp.lib has changed since index file Tab9_1_ftp.ind was created.

WARNING(ORPSIM-15227): The timestamp changed from Sun Jun 23 14:19:03 2013 to Sun Jun 23 14:19:04 2013.

INFO(ORPSIM-15422): Making new index file Tab9_1_ftp.ind for library file Tab9_1_ftp.lib.

Index has 1 entries from 1 file(s).

**** 07/02/13 16:03:19 ***** PSpice 16.6.0 (October 2012) ***** ID# 0 ********

 ** Profile: "Tab9_1_ftp-ac"  [ C:\Users\jbaker\Desktop\Chap9_PSpice\Tab9_1_ftp\Tab9_1_ftp-pspicefiles\Tab9_1_ftp\ac.sim ] 


 ****     MOSFET MODEL PARAMETERS


******************************************************************************




               P_1u            
               PMOS            
       LEVEL    3            
         TPG   -1            
           L  100.000000E-06 
           W  100.000000E-06 
          LD  100.000000E-09 
         VTO    -.9          
          KP   40.000000E-06 
       GAMMA     .6          
         PHI     .7          
      LAMBDA    0            
          IS   10.000000E-15 
          JS    0            
          PB    1            
        PBSW    1            
          CJ  400.000000E-06 
        CJSW  300.000000E-12 
        MJSW     .5          
        CGSO  200.000000E-12 
        CGDO  200.000000E-12 
        CGBO  100.000000E-12 
        NSUB  100.000000E+15 
         NFS    1.000000E+12 
         TOX   20.000000E-09 
          XJ  500.000000E-09 
          UO  250            
       UCRIT   10.000000E+03 
        VMAX   50.000000E+03 
       DELTA     .1          
       THETA     .1          
         ETA    0            
       KAPPA    1            
      DIOMOD    1            
         VFB    0            
        LETA    0            
        WETA    0            
          U0    0            
        TEMP    0            
         VDD    5            
       XPART    0            


**** 07/02/13 16:03:19 ***** PSpice 16.6.0 (October 2012) ***** ID# 0 ********

 ** Profile: "Tab9_1_ftp-ac"  [ C:\Users\jbaker\Desktop\Chap9_PSpice\Tab9_1_ftp\Tab9_1_ftp-pspicefiles\Tab9_1_ftp\ac.sim ] 


 ****     SMALL SIGNAL BIAS SOLUTION       TEMPERATURE =   27.000 DEG C


******************************************************************************



 NODE   VOLTAGE     NODE   VOLTAGE     NODE   VOLTAGE     NODE   VOLTAGE


(N06555)   -1.1500 (N06561)    -.2500 (N06571)    0.0000 




    VOLTAGE SOURCE CURRENTS
    NAME         CURRENT

    V_VSG        0.000E+00
    V_VSD       -2.031E-05
    V_VBS       -2.600E-13

    TOTAL POWER DISSIPATION   5.08E-06  WATTS



          JOB CONCLUDED

**** 07/02/13 16:03:19 ***** PSpice 16.6.0 (October 2012) ***** ID# 0 ********

 ** Profile: "Tab9_1_ftp-ac"  [ C:\Users\jbaker\Desktop\Chap9_PSpice\Tab9_1_ftp\Tab9_1_ftp-pspicefiles\Tab9_1_ftp\ac.sim ] 


 ****     JOB STATISTICS SUMMARY


******************************************************************************



  Total job time (using Solver 1)   =         .27
