
**** 07/02/13 15:52:12 ***** PSpice 16.6.0 (October 2012) ***** ID# 0 ********

 ** Profile: "Fig9_30-dc"  [ C:\Users\jbaker\Desktop\Chap9_PSpice\Fig9_30\Fig9_30-pspicefiles\Fig9_30\dc.sim ] 


 ****     CIRCUIT DESCRIPTION


******************************************************************************




** Creating circuit file "dc.cir" 
** WARNING: THIS AUTOMATICALLY GENERATED FILE MAY BE OVERWRITTEN BY SUBSEQUENT SIMULATIONS

*Libraries: 
* Profile Libraries :
* Local Libraries :
.LIB "../../../Fig9_30-pspicefiles/Fig9_30.lib" 
* From [PSPICE NETLIST] section of C:\SPB_Data\cdssetup\OrCAD_PSpice/16.6.0/PSpice.ini file:
.lib "nom.lib" 

*Analysis directives: 
.DC LIN V_VGS 0 1 1m 
.TEMP 0 50 100
.OPTIONS ADVCONV
.PROBE64 V(alias(*)) I(alias(*)) W(alias(*)) D(alias(*)) NOISE(alias(*)) 
.INC "..\Fig9_30.net" 



**** INCLUDING Fig9_30.net ****
* source FIG9_30
V_VGS         N04108 0 DC 0  
M_M1         N04092 N04108 0 N04068 N_50n  
+ L=100n  
+ W=2.5u         
V_VDS         N04092 0 DC 1  
V_VSB         0 N04068 DC 0  

**** RESUMING dc.cir ****
.END

WARNING(ORPSIM-15223): Library file C:\Users\jbaker\Desktop\Chap9_PSpice\Fig9_30\Fig9_30-pspicefiles\fig9_30.lib has changed since index file Fig9_30.ind was created.

WARNING(ORPSIM-15227): The timestamp changed from Fri Jun 21 20:11:44 2013 to Fri Jun 21 20:11:46 2013.

INFO(ORPSIM-15422): Making new index file Fig9_30.ind for library file Fig9_30.lib.

Index has 1 entries from 1 file(s).

WARNING(ORPSIM-15623): model N_50n: Warning: toxe, toxp and dtox all given and toxe != toxp + dtox; dtox ignored

WARNING(ORPSIM-15499): Mosfet M_M1, model N_50n: Toxp = 7e-010 is less than 10A

WARNING(ORPSIM-15532): Acde = 0.290715 is too small

**** 07/02/13 15:52:12 ***** PSpice 16.6.0 (October 2012) ***** ID# 0 ********

 ** Profile: "Fig9_30-dc"  [ C:\Users\jbaker\Desktop\Chap9_PSpice\Fig9_30\Fig9_30-pspicefiles\Fig9_30\dc.sim ] 


 ****     MOSFET MODEL PARAMETERS


******************************************************************************




               N_50n           
               NMOS            
  T_Measured   27            
   T_Current   27            
       LEVEL    8            
           L  100.000000E-06 
           W  100.000000E-06 
         VTO     .22         
          KP  138.125800E-06 
       GAMMA    0            
      LAMBDA    0            
         RSH    3            
          IS    1.000000E-15 
          JS  100.000000E-06 
          PB    1            
        PBSW    1            
          CJ  500.000000E-06 
        CJSW  500.000000E-12 
        CGSO  623.800000E-12 
        CGDO  623.800000E-12 
        CGBO   25.600000E-12 
         TOX   15.000000E-09 
          XJ   20.000000E-09 
       UCRIT   10.000000E+03 
       DELTA     .01         
      DIOMOD    1            
         VFB    -.55         
          K1     .35         
          K2     .05         
        LETA    0            
        WETA    0            
          U0     .032        
       XPART    0            
        VTH0     .22         
          K3    0            
        DVT0    2.8          
        DVT1     .52         
          UA  160.000000E-12 
          UB   11.000000E-18 
          UC  -30.000000E-12 
        VSAT  110.000000E+03 
        RDSW  150            
        VOFF    -.15         
     NFACTOR    1.2          
        CDSC  200.000000E-06 
        PCLM     .18         
      PDIBL1     .028        
      PDIBL2     .022        
       DROUT     .45         
      PSCBE1  814.000000E+06 
      PSCBE2  100.000000E-09 
          A0    2            
          A1    0            
          A2    1            
         LDD    0            
        LITL   30.000000E-09 
         KT1    -.21         
         KT2    -.042        
         UA1    1.000000E-09 
         UB1 -350.000000E-21 
         UC1    0            
          AT   53.000000E+03 
        PVAG   10.000000E-21 
        KETA     .04         
        ETA0     .15         
        ETAB    0            
        DSUB    2            
       NGATE  500.000000E+18 
      MOBMOD    0            
         AGS   10.000000E-21 
       DVT1W    0            
       DVT2W    0            
        PRWG    0            
        PRWB   68.000000E-12 
     PDIBLCB   -5.000000E-03 
          B0  -10.000000E-21 
      ALPHA0     .074        
        CGSL  249.500000E-12 
        CGDL  249.500000E-12 
        LINT   12.000000E-09 
        WINT    5.000000E-09 
         DLC   12.000000E-09 
         DWC    5.000000E-09 
          CF  124.392700E-12 
        NOIA  100.000000E+18 
        NOIB   50.000000E+03 
        NOIC   -1.400000E-12 
         VTM     .025864     
    PARAMCHK    1            
     VERSION    4.1          
       PBSWG    1            
       MJSWG     .33         
       CJSWG  500.000000E-12 
      ALPHA1    5.000000E-03 
        TOXM    1.400000E-09 
         TPB    5.000000E-03 
         TCJ    1.000000E-03 
       TPBSW    5.000000E-03 
       TCJSW    1.000000E-03 
      TPBSWG    5.000000E-03 
      TCJSWG    1.000000E-03 
        NOFF     .9          
      VOFFCV     .02         
         LLC    0            
         LWC    0            
        LWLC    0            
         WLC    0            
         WWC    0            
        WWLC    0            
BSIM4oxideTrapDensityC    8.750000E+09 
    rbodyMod    1            
    rgateMod    1            
      igcMod    1            
      igbMod    1            
        toxe    1.400000E-09 
        toxp  700.000000E-12 
        ndep    2.800000E+18 
       dvtp0  100.000000E-09 
          eu    1.67         
       dvtp1     .05         
        lpe0   57.500000E-09 
        lpeb  230.000000E-12 
        minv     .05         
         rsw  150            
         rdw  150            
      fprout     .2          
       pdits     .2          
      pditsd     .23         
      pditsl    2.300000E+06 
       agidl  200.000000E-06 
       bgidl    2.100000E+09 
       cgidl  200.000000E-06 
        aigc     .017        
        bigc    2.800000E-03 
        cigc    2.000000E-03 
       aigsd     .017        
       bigsd    2.800000E-03 
       cigsd    2.000000E-03 
     aigbacc     .012        
     bigbacc    2.800000E-03 
     cigbacc    2.000000E-03 
     aigbinv     .014        
     bigbinv    4.000000E-03 
     cigbinv    4.000000E-03 
      xrcrg2    5            
      toxref    1.400000E-09 
    ijthdfwd     .01         
    ijthsfwd     .01         
    ijthdrev    1.000000E-03 
    ijthsrev    1.000000E-03 
       gbmin  100.000000E-12 
        rbdb   15            
        rbsb   15            
        rbpb    5            
        rbps   15            
        rbpd   15            
     ckappas     .02         
     ckappad     .02         
       dlcig   12.000000E-09 
         dwj    0            
        rshg     .4          
      CJSWGD  500.000000E-12 
      PBSWGD    1            
      MJSWGD     .33         
      CJSWGS  500.000000E-12 
      PBSWGS    1            
      MJSWGS     .33         
        JSWS   10.000000E-12 
       JSWGS  100.000000E-12 
        JSWD   10.000000E-12 
       JSWGD  100.000000E-12 
        coxe     .024665     
        coxp     .049331     
BSIM4factor1   64.807410E-06 


**** 07/02/13 15:52:12 ***** PSpice 16.6.0 (October 2012) ***** ID# 0 ********

 ** Profile: "Fig9_30-dc"  [ C:\Users\jbaker\Desktop\Chap9_PSpice\Fig9_30\Fig9_30-pspicefiles\Fig9_30\dc.sim ] 


 ****     TEMPERATURE-ADJUSTED VALUES      TEMPERATURE =    0.000 DEG C


******************************************************************************




WARNING(ORPSIM-15623): model N_50n: Warning: toxe, toxp and dtox all given and toxe != toxp + dtox; dtox ignored

WARNING(ORPSIM-15499): Mosfet M_M1, model N_50n: Toxp = 7e-010 is less than 10A

WARNING(ORPSIM-15532): Acde = 0.290715 is too small

WARNING(ORPSIM-15623): model N_50n: Warning: toxe, toxp and dtox all given and toxe != toxp + dtox; dtox ignored

WARNING(ORPSIM-15499): Mosfet M_M1, model N_50n: Toxp = 7e-010 is less than 10A

WARNING(ORPSIM-15532): Acde = 0.290715 is too small

**** 07/02/13 15:52:12 ***** PSpice 16.6.0 (October 2012) ***** ID# 0 ********

 ** Profile: "Fig9_30-dc"  [ C:\Users\jbaker\Desktop\Chap9_PSpice\Fig9_30\Fig9_30-pspicefiles\Fig9_30\dc.sim ] 


 ****     TEMPERATURE-ADJUSTED VALUES      TEMPERATURE =   50.000 DEG C


******************************************************************************




WARNING(ORPSIM-15623): model N_50n: Warning: toxe, toxp and dtox all given and toxe != toxp + dtox; dtox ignored

WARNING(ORPSIM-15499): Mosfet M_M1, model N_50n: Toxp = 7e-010 is less than 10A

WARNING(ORPSIM-15532): Acde = 0.290715 is too small

WARNING(ORPSIM-15623): model N_50n: Warning: toxe, toxp and dtox all given and toxe != toxp + dtox; dtox ignored

WARNING(ORPSIM-15499): Mosfet M_M1, model N_50n: Toxp = 7e-010 is less than 10A

WARNING(ORPSIM-15532): Acde = 0.290715 is too small

**** 07/02/13 15:52:12 ***** PSpice 16.6.0 (October 2012) ***** ID# 0 ********

 ** Profile: "Fig9_30-dc"  [ C:\Users\jbaker\Desktop\Chap9_PSpice\Fig9_30\Fig9_30-pspicefiles\Fig9_30\dc.sim ] 


 ****     TEMPERATURE-ADJUSTED VALUES      TEMPERATURE =  100.000 DEG C


******************************************************************************




WARNING(ORPSIM-15623): model N_50n: Warning: toxe, toxp and dtox all given and toxe != toxp + dtox; dtox ignored

WARNING(ORPSIM-15499): Mosfet M_M1, model N_50n: Toxp = 7e-010 is less than 10A

WARNING(ORPSIM-15532): Acde = 0.290715 is too small

WARNING(ORPSIM-15623): model N_50n: Warning: toxe, toxp and dtox all given and toxe != toxp + dtox; dtox ignored

WARNING(ORPSIM-15499): Mosfet M_M1, model N_50n: Toxp = 7e-010 is less than 10A

WARNING(ORPSIM-15532): Acde = 0.290715 is too small


          JOB CONCLUDED

**** 07/02/13 15:52:12 ***** PSpice 16.6.0 (October 2012) ***** ID# 0 ********

 ** Profile: "Fig9_30-dc"  [ C:\Users\jbaker\Desktop\Chap9_PSpice\Fig9_30\Fig9_30-pspicefiles\Fig9_30\dc.sim ] 


 ****     JOB STATISTICS SUMMARY


******************************************************************************



  Total job time (using Solver 1)   =         .33
